
 ANSYS Academic Teaching Introductory              


 *------------------------------------------------------------------*
 |                                                                  |
 |   W E L C O M E   T O   T H E   A N S Y S (R)  P R O G R A M     |
 |                                                                  |
 *------------------------------------------------------------------*




 ***************************************************************
 *            ANSYS 2020 R1          LEGAL NOTICES             *
 ***************************************************************
 *                                                             *
 * Copyright 1971-2020 ANSYS, Inc.  All rights reserved.       *
 * Unauthorized use, distribution or duplication is            *
 * prohibited.                                                 *
 *                                                             *
 * Ansys is a registered trademark of ANSYS, Inc. or its       *
 * subsidiaries in the United States or other countries.       *
 * See the ANSYS, Inc. online documentation or the ANSYS, Inc. *
 * documentation CD or online help for the complete Legal      *
 * Notice.                                                     *
 *                                                             *
 ***************************************************************
 *                                                             *
 * THIS ANSYS SOFTWARE PRODUCT AND PROGRAM DOCUMENTATION       *
 * INCLUDE TRADE SECRETS AND CONFIDENTIAL AND PROPRIETARY      *
 * PRODUCTS OF ANSYS, INC., ITS SUBSIDIARIES, OR LICENSORS.    *
 * The software products and documentation are furnished by    *
 * ANSYS, Inc. or its subsidiaries under a software license    *
 * agreement that contains provisions concerning               *
 * non-disclosure, copying, length and nature of use,          *
 * compliance with exporting laws, warranties, disclaimers,    *
 * limitations of liability, and remedies, and other           *
 * provisions.  The software products and documentation may be *
 * used, disclosed, transferred, or copied only in accordance  *
 * with the terms and conditions of that software license      *
 * agreement.                                                  *
 *                                                             *
 * ANSYS, Inc. is a UL registered                              *
 * ISO 9001:2015 company.                                      *
 *                                                             *
 ***************************************************************
 *                                                             *
 * This product is subject to U.S. laws governing export and   *
 * re-export.                                                  *
 *                                                             *
 * For U.S. Government users, except as specifically granted   *
 * by the ANSYS, Inc. software license agreement, the use,     *
 * duplication, or disclosure by the United States Government  *
 * is subject to restrictions stated in the ANSYS, Inc.        *
 * software license agreement and FAR 12.212 (for non-DOD      *
 * licenses).                                                  *
 *                                                             *
 ***************************************************************

 2020 R1 
     
 Point Releases and Patches installed:   
     
 Academic Student 2020 R1
 Aqwa 2020 R1
 FENSAP-ICE 2020 R1  


          *****  ANSYS COMMAND LINE ARGUMENTS  *****
  INITIAL JOBNAME              = file                                                                                                                                                                                                                                                    
  DISTRIBUTED MEMORY PARALLEL REQUESTED
       2 PARALLEL PROCESSES REQUESTED WITH SINGLE THREAD PER PROCESS
    TOTAL OF     2 CORES REQUESTED
  MPI OPTION                   = INTELMPI
  START-UP FILE MODE           = READ  
  STOP FILE MODE               = READ  
  MODEL FILE NAME              = C:\Users\Bizjan\Desktop\Diplomska naloga\Ansys\zerjav ansys\file.db                                                                                                                                                                                                 
  GRAPHICS DEVICE REQUESTED    = win32   
  GRAPHICAL ENTRY              = YES   
  LANGUAGE                     = en-us               
  INITIAL DIRECTORY = C:\Users\Bizjan\Desktop\Diplomska naloga\Ansys\zerjav ansys

 RELEASE= 2020 R1              BUILD= 20.1      UP20191203   VERSION=WINDOWS x64 
 CURRENT JOBNAME=file1  22:40:23  AUG 17, 2020 CP=      0.000


 RESUME ANSYS DATA FROM FILE NAME=C:\Users\Bizjan\Desktop\Diplomska naloga\Ansys\zerjav ansys\file.db                                                                                                                                                                                                 

 *** ANSYS GLOBAL STATUS *** 

 TITLE = modalna analiza zerjava                                               
 ANALYSIS TYPE =  MODAL                
 NUMBER OF ELEMENT TYPES =      1
       560 ELEMENTS CURRENTLY SELECTED.  MAX ELEMENT NUMBER =         591
       188 NODES CURRENTLY SELECTED.     MAX NODE NUMBER =            188
 MAXIMUM LINEAR PROPERTY NUMBER        =       1
 ACTIVE COORDINATE SYSTEM              =       0  (CARTESIAN)  
 NUMBER OF SPECIFIED CONSTRAINTS       =      12

 INITIAL JOBNAME = file1
 CURRENT JOBNAME = file1

 *****  ANSYS SOLUTION ROUTINE  *****

                      L O A D   S T E P   O P T I O N S

   LOAD STEP NUMBER. . . . . . . . . . . . . . . .     1
   THERMAL STRAINS INCLUDED IN THE LOAD VECTOR . .   YES
   PRINT OUTPUT CONTROLS . . . . . . . . . . . . .NO PRINTOUT
   DATABASE OUTPUT CONTROLS. . . . . . . . . . . .ALL DATA WRITTEN



  *** MASS SUMMARY BY ELEMENT TYPE ***

  TYPE      MASS
     1   1004.61    
 AN AVERAGE OF THE X-, Y-, AND Z-DIRECTION MASS TERMS ARE USED

  SUBSPACE CALCULATION OF UP TO   552 EIGENVECTORS.
  NUMBER OF EQUATIONS              =          552
  MAXIMUM WAVEFRONT                =           21
  MAXIMUM MODES STORED             =          552
  MINIMUM EIGENVALUE               =  0.00000E+00
  MAXIMUM EIGENVALUE               =  0.10000E+31


  Local memory allocated for solver              =      0.318 MB
  Local memory required for in-core solution     =      0.304 MB
  Local memory required for out-of-core solution =      0.232 MB

 *** NOTE ***                            CP =       0.281   TIME= 22:46:35
 The Distributed Sparse Matrix Solver used by the Subspace eigensolver   
 is currently running in the in-core memory mode.  This memory mode      
 uses the most amount of memory in order to avoid using the hard drive   
 as much as possible, which most often results in the fastest solution   
 time.  This mode is recommended if enough physical memory is present    
 to accommodate all of the solver data.                                  

 *** ANSYS - ENGINEERING ANALYSIS SYSTEM  RELEASE 2020 R1          20.1     ***
 DISTRIBUTED ANSYS Academic Teaching Introductory              

 00000000  VERSION=WINDOWS x64   22:46:38  AUG 17, 2020 CP=      2.828

 modalna analiza zerjava                                                       



  ***** FREQUENCIES FROM SUBSPACE ITERATION *****

  MODE    FREQUENCY (HERTZ)      


    1    0.4951402661010E-02
    2    0.9816437065842E-02
    3    0.1350503622073E-01
    4    0.2324592550102E-01
    5    0.3029549496733E-01
    6    0.8233476707018E-01
    7    0.1172787724794    
    8    0.1221116266598    
    9    0.1283736088630    
   10    0.1752942885299    
   11    0.1844080800897    
   12    0.1851128224273    
   13    0.2401062701415    
   14    0.2492206399971    
   15    0.3275550640515    
   16    0.3687145188345    
   17    0.3798249677587    
   18    0.4283699574814    
   19    0.4630016060570    
   20    0.5094739703424    
   21    0.5268239618857    
   22    0.5324446161665    
   23    0.5507156372394    
   24    0.5649620143131    
   25    0.6687055459574    
   26    0.7165235800967    
   27    0.7361546150384    
   28    0.7741240021752    
   29    0.8197192685309    
   30    0.8374896570021    
   31    0.8653025481505    
   32    0.8884403738107    
   33    0.9621929588624    
   34     1.004070578520    
   35     1.052342949073    
   36     1.082530382521    
   37     1.122849512480    
   38     1.179715160801    
   39     1.224244116942    
   40     1.241107403858    
   41     1.267568093699    
   42     1.346173874268    
   43     1.395818938570    
   44     1.413713140877    
   45     1.471833207472    
   46     1.506515716733    
   47     1.540794763390    
   48     1.578267740239    
   49     1.594279893892    
   50     1.613604325226    
   51     1.645213300687    
   52     1.728707869320    
   53     1.754552051852    
   54     1.831775859896    
   55     1.890559055224    
   56     1.905366368749    
   57     1.916090382716    
   58     1.964055991727    
   59     2.013574318788    
   60     2.085659089592    
   61     2.146869609243    
   62     2.186081098162    
   63     2.198775434557    
   64     2.221033466387    
   65     2.296354923614    
   66     2.324497126510    
   67     2.342462101320    
   68     2.369523497142    
   69     2.445500236052    
   70     2.503040610954    
   71     2.540092847897    
   72     2.605293845555    
   73     2.641048121243    
   74     2.658065403276    
   75     2.685554977794    
   76     2.750756632289    
   77     2.776791474327    
   78     2.829999874535    
   79     2.841450090936    
   80     2.956804860428    
   81     3.018013940474    
   82     3.038072581548    
   83     3.076230582292    
   84     3.105915435627    
   85     3.124072123820    
   86     3.168376132491    
   87     3.240497101891    
   88     3.286026032008    
   89     3.295730219922    
   90     3.354338782573    
   91     3.376404770531    
   92     3.424556185754    
   93     3.515346098768    
   94     3.528897369549    
   95     3.551813708506    
   96     3.573434866364    
   97     3.625368599764    
   98     3.661993697267    
   99     3.689833621086    
  100     3.730048748570    
  101     3.750475812502    
  102     3.794181207562    
  103     3.885004088717    
  104     3.901652427910    
  105     3.920588171769    
  106     3.951089507027    
  107     4.031739931780    
  108     4.041139430737    
  109     4.093137960726    
  110     4.099362318205    
  111     4.113023744618    
  112     4.140347663441    
  113     4.239610027981    
  114     4.267912060440    
  115     4.328113337709    
  116     4.353479701894    
  117     4.423928154711    
  118     4.462107673279    
  119     4.471252202031    
  120     4.481609784793    
  121     4.539880210325    
  122     4.574413110714    
  123     4.586707906759    
  124     4.602288299754    
  125     4.606078867324    
  126     4.643418809846    
  127     4.736222703315    
  128     4.774686559422    
  129     4.825926217803    
  130     4.851392517046    
  131     4.862258530712    
  132     4.880173200143    
  133     4.917644980712    
  134     5.073759817130    
  135     5.105732466315    
  136     5.124651273073    
  137     5.161386956146    
  138     5.207327757980    
  139     5.246882697230    
  140     5.282073459346    
  141     5.338725049987    
  142     5.357224580010    
  143     5.401871304478    
  144     5.432464970628    
  145     5.465040134444    
  146     5.493548781393    
  147     5.494675888115    
  148     5.519559353444    
  149     5.565492210858    
  150     5.591404323841    
  151     5.614599911397    
  152     5.650347748836    
  153     5.700633664062    
  154     5.741473960064    
  155     5.754581635147    
  156     5.782474122706    
  157     5.786326624687    
  158     5.816767751579    
  159     5.825465950344    
  160     5.857757006776    
  161     5.877769403904    
  162     5.902446537994    
  163     5.921573479812    
  164     5.944672454767    
  165     5.960786879689    
  166     5.983982739966    
  167     5.990289456951    
  168     5.999334744619    
  169     6.004775920455    
  170     6.028464553919    
  171     6.047203280857    
  172     6.047624554088    
  173     6.049888393687    
  174     6.078434516998    
  175     6.108460059221    
  176     6.129187511059    
  177     6.178225383394    
  178     6.266372267819    
  179     6.344708707248    
  180     6.423422571854    
  181     6.448748875476    
  182     6.462489525167    
  183     6.572733904811    
  184     6.602309443426    
  185     6.616665179397    
  186     6.617219491282    
  187     6.680462058619    
  188     6.807092102927    
  189     6.838324660414    
  190     6.852062295855    
  191     6.897847759826    
  192     6.949908477581    
  193     7.018634504554    
  194     7.097431932576    
  195     7.144973748939    
  196     7.159606993973    
  197     7.237523812858    
  198     7.260469377233    
  199     7.378840573638    
  200     7.449337275198    
  201     7.488737502219    
  202     7.529869499725    
  203     7.577274637163    
  204     7.624630342859    
  205     7.709121562705    
  206     7.767190504554    
  207     7.829399887997    
  208     7.888733001650    
  209     7.978864889784    
  210     8.043042730430    
  211     8.083386857072    
  212     8.125902146351    
  213     8.212570273388    
  214     8.286872700355    
  215     8.307094011783    
  216     8.405872628753    
  217     8.424958098987    
  218     8.481731922201    
  219     8.515844209066    
  220     8.578820268693    
  221     8.720844472701    
  222     8.811583321045    
  223     9.043122880035    
  224     9.089744565396    
  225     9.155100875954    
  226     9.173900028377    
  227     9.189044786188    
  228     9.407099640183    
  229     9.450352813990    
  230     9.597626673488    
  231     9.643236472693    
  232     9.694029138709    
  233     9.749637259251    
  234     9.861877025298    
  235     9.892325560109    
  236     9.952008833932    
  237     10.02598251837    
  238     10.11441659383    
  239     10.18214749491    
  240     10.24696952869    
  241     10.34928673700    
  242     10.38322902583    
  243     10.50191720011    
  244     10.62255951527    
  245     10.66095112233    
  246     10.70662350416    
  247     10.79071370703    
  248     10.85173509639    
  249     10.87118096861    
  250     10.97235617275    
  251     11.07714799673    
  252     11.12141529099    
  253     11.14945264944    
  254     11.22084309988    
  255     11.26486179892    
  256     11.29447933697    
  257     11.37245332316    
  258     11.38183714524    
  259     11.38472716588    
  260     11.39546133146    
  261     11.39826781382    
  262     11.40748583669    
  263     11.42300443952    
  264     11.43687240287    
  265     11.45896716638    
  266     11.53500711159    
  267     11.60434843959    
  268     11.64438948921    
  269     11.67200316328    
  270     11.70816361806    
  271     11.71227530903    
  272     11.73055108292    
  273     11.74378595843    
  274     11.79616773806    
  275     11.80644214282    
  276     11.85525910924    
  277     11.89804309170    
  278     11.93287489031    
  279     11.96445606585    
  280     11.99870362075    
  281     12.02735400874    
  282     12.03317096139    
  283     12.04393236881    
  284     12.05091959517    
  285     12.05353632038    
  286     12.06753140685    
  287     12.08780995382    
  288     12.11998181257    
  289     12.13689236615    
  290     12.19233029025    
  291     12.25412213889    
  292     12.27834637283    
  293     12.32934345004    
  294     12.34712504052    
  295     12.39299478674    
  296     12.43664483388    
  297     12.54804699445    
  298     12.55454157198    
  299     12.60623005332    
  300     12.63416828224    
  301     12.67371650168    
  302     12.70312297034    
  303     12.78078020364    
  304     12.81837831734    
  305     12.82102712388    
  306     12.83526607806    
  307     12.84074221909    
  308     12.87288010776    
  309     12.87663032207    
  310     12.92473886318    
  311     12.96848688173    
  312     12.97131164163    
  313     12.97620420293    
  314     13.00150007638    
  315     13.02333042785    
  316     13.04569092688    
  317     13.09008948220    
  318     13.09913178866    
  319     13.11697795615    
  320     13.14509307501    
  321     13.15862341923    
  322     13.18723875548    
  323     13.19928990289    
  324     13.20362674714    
  325     13.22385208350    
  326     13.23075005272    
  327     13.24104327870    
  328     13.25898263436    
  329     13.26608132677    
  330     13.28952019724    
  331     13.29135285138    
  332     13.30394138380    
  333     13.32986087240    
  334     13.33632483944    
  335     13.35429000082    
  336     13.36722008974    
  337     13.37165180057    
  338     13.38051320065    
  339     13.38610841780    
  340     13.39727779120    
  341     13.45284807014    
  342     13.45949972722    
  343     13.46946732754    
  344     13.49562198021    
  345     13.51246597156    
  346     13.52011861363    
  347     13.52435143502    
  348     13.54863208983    
  349     13.55301436956    
  350     13.57084187442    
  351     13.57481902060    
  352     13.58867727975    
  353     13.61569182818    
  354     13.65500026136    
  355     13.68945794689    
  356     13.69559885697    
  357     13.71022862027    
  358     13.76297690401    
  359     13.77986140242    
  360     13.80962893221    
  361     13.84220883238    
  362     13.85836950394    
  363     13.91994442108    
  364     13.96243365670    
  365     13.98284936364    
  366     14.01497961562    
  367     14.03640492874    
  368     14.07787543381    
  369     14.11311945521    
  370     14.12469074118    
  371     14.19645869767    
  372     14.21932974361    
  373     14.24043924312    
  374     14.24852920951    
  375     14.26589705510    
  376     14.31356053530    
  377     14.32499704400    
  378     14.33368194541    
  379     14.37633962260    
  380     14.39315919105    
  381     14.42986145262    
  382     14.44313021360    
  383     14.44930102817    
  384     14.44933550325    
  385     14.45465126398    
  386     14.48127050104    
  387     14.52290352045    
  388     14.61841367222    
  389     14.62972183153    
  390     14.65312898806    
  391     14.68157925410    
  392     14.73398442130    
  393     14.77618169626    
  394     14.82090259526    
  395     14.88162759515    
  396     14.94844441376    
  397     15.00280544059    
  398     15.04534702694    
  399     15.09006310524    
  400     15.13150591832    
  401     15.14595950502    
  402     15.21929442317    
  403     15.23066660192    
  404     15.25217537766    
  405     15.28264185144    
  406     15.33581593096    
  407     15.36139818762    
  408     15.38227856520    
  409     15.45191957944    
  410     15.53146019503    
  411     15.55587740447    
  412     15.59385329102    
  413     15.59977549908    
  414     15.63443006924    
  415     15.63935434625    
  416     15.69947436045    
  417     15.77589597077    
  418     15.81662775674    
  419     15.84561881616    
  420     15.87229531656    
  421     15.93281550416    
  422     15.95515934029    
  423     15.98469841510    
  424     16.03257044894    
  425     16.08921977075    
  426     16.13442602976    
  427     16.16320615343    
  428     16.16366706325    
  429     16.18593919017    
  430     16.23204692525    
  431     16.24638937902    
  432     16.29382979147    
  433     16.34346103122    
  434     16.37410934855    
  435     16.39791389420    
  436     16.43963446762    
  437     16.51384784384    
  438     16.52216944542    
  439     16.54458565422    
  440     16.56571745995    
  441     16.59498016262    
  442     16.61051993815    
  443     16.61099801771    
  444     16.67119494247    
  445     16.67841544045    
  446     16.76513550331    
  447     16.81465504493    
  448     16.87053403714    
  449     16.91994523633    
  450     16.92625148570    
  451     16.95985414520    
  452     17.11447061859    
  453     17.14324438319    
  454     17.21429425248    
  455     17.23408557765    
  456     17.27075416625    
  457     17.37355226659    
  458     17.38566682742    
  459     17.41991121080    
  460     17.47934067401    
  461     17.51309141828    
  462     17.53251082930    
  463     17.57363154158    
  464     17.64852571030    
  465     17.70073306030    
  466     17.75441001545    
  467     17.81528898581    
  468     17.82675808210    
  469     17.86004413749    
  470     17.86130716176    
  471     17.88724343220    
  472     17.89111675843    
  473     17.89651998189    
  474     17.91502133989    
  475     17.93865320929    
  476     17.95638822567    
  477     17.96557260907    
  478     17.99665867512    
  479     18.02214380723    
  480     18.07131559379    
  481     18.07867335009    
  482     18.09814989237    
  483     18.11929255492    
  484     18.15659227372    
  485     18.21393276026    
  486     18.30846062346    
  487     18.33076916345    
  488     18.43765428364    
  489     18.61116262106    
  490     18.63821431566    
  491     18.64761507664    
  492     18.68270661556    
  493     18.72789940308    
  494     18.81898912134    
  495     18.85995875721    
  496     18.91195106505    
  497     18.97943116252    
  498     19.05336100293    
  499     19.10637792842    
  500     19.25356897732    
  501     19.34216760687    
  502     19.41651639402    
  503     19.44426490763    
  504     19.47498319024    
  505     19.48744385722    
  506     19.59482777721    
  507     19.71507765803    
  508     19.86729674174    
  509     19.97473517656    
  510     19.99783400621    
  511     20.03114159047    
  512     20.15113119969    
  513     20.21588697753    
  514     20.28415539014    
  515     20.34330514961    
  516     20.40875442459    
  517     20.42907604979    
  518     20.49944980652    
  519     20.54290176262    
  520     20.61048905670    
  521     20.79466896571    
  522     20.84129990872    
  523     20.94477744324    
  524     20.96686167768    
  525     21.17186107210    
  526     21.23862327744    
  527     21.24996159583    
  528     21.27574464039    
  529     21.30668725855    
  530     21.48910497988    
  531     21.50178150062    
  532     21.53210922626    
  533     21.55290365800    
  534     21.56637912050    
  535     21.60233502120    
  536     21.71899834905    
  537     21.77334102837    
  538     21.79994866268    
  539     21.98703738336    
  540     22.02306548978    
  541     22.12926373112    
  542     22.48913042495    
  543     23.24902608747    
  544     24.51504522138    
  545     25.11513943935    
  546     28.60860908907    
  547     28.61053169614    
  548     30.62228609319    
  549     37.28125489026    
  550     38.01978582127    
  551     38.29601751742    
  552     38.29607746277    

 *** ANSYS - ENGINEERING ANALYSIS SYSTEM  RELEASE 2020 R1          20.1     ***
 DISTRIBUTED ANSYS Academic Teaching Introductory              

 00000000  VERSION=WINDOWS x64   22:46:38  AUG 17, 2020 CP=      2.906

 modalna analiza zerjava                                                       





          ***** PARTICIPATION FACTOR CALCULATION *****  X  DIRECTION
                                                                                  CUMULATIVE     RATIO EFF.MASS
  MODE   FREQUENCY       PERIOD      PARTIC.FACTOR     RATIO    EFFECTIVE MASS   MASS FRACTION   TO TOTAL MASS
     1    0.495140E-02    201.96      -0.86718E-02    0.000395    0.752004E-04    0.755551E-07    0.747393E-07
     2    0.981644E-02    101.87       -21.929        1.000000     480.898        0.483167        0.477949    
     3    0.135050E-01    74.046      -0.82857E-01    0.003778    0.686524E-02    0.483174        0.682315E-05
     4    0.232459E-01    43.018       0.27864        0.012706    0.776422E-01    0.483252        0.771661E-04
     5    0.302955E-01    33.008        18.972        0.865137     359.934        0.844884        0.357727    
     6    0.823348E-01    12.146       0.13725        0.006259    0.188362E-01    0.844903        0.187207E-04
     7    0.117279        8.5267       -3.9335        0.179373     15.4728        0.860448        0.153779E-01
     8    0.122112        8.1892       0.16088        0.007336    0.258831E-01    0.860474        0.257244E-04
     9    0.128374        7.7898       0.61355        0.027978    0.376443        0.860853        0.374135E-03
    10    0.175294        5.7047       -2.7081        0.123494     7.33401        0.868221        0.728905E-02
    11    0.184408        5.4228        3.9643        0.180776     15.7157        0.884011        0.156194E-01
    12    0.185113        5.4021       -5.9721        0.272332     35.6658        0.919845        0.354471E-01
    13    0.240106        4.1648       0.27429        0.012508    0.752369E-01    0.919921        0.747755E-04
    14    0.249221        4.0125        2.5379        0.115733     6.44119        0.926392        0.640170E-02
    15    0.327555        3.0529      -0.16376        0.007468    0.268187E-01    0.926419        0.266543E-04
    16    0.368715        2.7121      -0.56713        0.025861    0.321631        0.926742        0.319659E-03
    17    0.379825        2.6328       -1.6881        0.076977     2.84954        0.929605        0.283207E-02
    18    0.428370        2.3344      -0.99839E-01    0.004553    0.996778E-02    0.929615        0.990666E-05
    19    0.463002        2.1598        4.7594        0.217033     22.6518        0.952374        0.225129E-01
    20    0.509474        1.9628       -1.0759        0.049063     1.15761        0.953537        0.115051E-02
    21    0.526824        1.8982      -0.46908        0.021390    0.220032        0.953758        0.218682E-03
    22    0.532445        1.8781       -1.5755        0.071846     2.48235        0.956252        0.246713E-02
    23    0.550716        1.8158      -0.19154E-01    0.000873    0.366867E-03    0.956253        0.364617E-06
    24    0.564962        1.7700       0.18439        0.008408    0.339986E-01    0.956287        0.337901E-04
    25    0.668706        1.4954      -0.36347        0.016575    0.132110        0.956419        0.131300E-03
    26    0.716524        1.3956      -0.62198        0.028363    0.386863        0.956808        0.384491E-03
    27    0.736155        1.3584       -1.0812        0.049302     1.16891        0.957983        0.116175E-02
    28    0.774124        1.2918       0.19897        0.009073    0.395886E-01    0.958022        0.393459E-04
    29    0.819719        1.2199       -1.9138        0.087271     3.66260        0.961702        0.364014E-02
    30    0.837490        1.1940        3.0490        0.139039     9.29661        0.971043        0.923961E-02
    31    0.865303        1.1557      -0.26504        0.012086    0.702439E-01    0.971113        0.698132E-04
    32    0.888440        1.1256       0.76446E-02    0.000349    0.584395E-04    0.971113        0.580812E-07
    33    0.962193        1.0393       0.12504        0.005702    0.156347E-01    0.971129        0.155388E-04
    34     1.00407       0.99595       0.79208E-01    0.003612    0.627392E-02    0.971135        0.623545E-05
    35     1.05234       0.95026       -1.2665        0.057752     1.60391        0.972747        0.159408E-02
    36     1.08253       0.92376       0.11109        0.005066    0.123407E-01    0.972759        0.122651E-04
    37     1.12285       0.89059      -0.33886        0.015452    0.114824        0.972875        0.114120E-03
    38     1.17972       0.84766      -0.32219        0.014692    0.103806        0.972979        0.103169E-03
    39     1.22424       0.81683      -0.43169        0.019685    0.186352        0.973166        0.185210E-03
    40     1.24111       0.80573        2.3961        0.109263     5.74114        0.978934        0.570594E-02
    41     1.26757       0.78891       0.77001        0.035113    0.592909        0.979530        0.589273E-03
    42     1.34617       0.74285       0.84425        0.038499    0.712763        0.980246        0.708393E-03
    43     1.39582       0.71643      -0.55714        0.025406    0.310400        0.980558        0.308497E-03
    44     1.41371       0.70736      -0.48048        0.021910    0.230862        0.980790        0.229447E-03
    45     1.47183       0.67942       -1.0422        0.047523     1.08608        0.981881        0.107942E-02
    46     1.50652       0.66378       0.42443E-01    0.001935    0.180143E-02    0.981883        0.179039E-05
    47     1.54079       0.64902      -0.80496E-01    0.003671    0.647961E-02    0.981890        0.643988E-05
    48     1.57827       0.63361      -0.28508        0.013000    0.812689E-01    0.981971        0.807706E-04
    49     1.59428       0.62724       0.34745        0.015844    0.120724        0.982092        0.119984E-03
    50     1.61360       0.61973      -0.58326        0.026597    0.340187        0.982434        0.338101E-03
    51     1.64521       0.60782      -0.12101        0.005518    0.146437E-01    0.982449        0.145539E-04
    52     1.72871       0.57847        1.7395        0.079322     3.02580        0.985489        0.300725E-02
    53     1.75455       0.56995        1.1279        0.051435     1.27226        0.986767        0.126446E-02
    54     1.83178       0.54592      -0.12766        0.005821    0.162971E-01    0.986784        0.161972E-04
    55     1.89056       0.52894       0.13016        0.005935    0.169412E-01    0.986801        0.168373E-04
    56     1.90537       0.52483       0.20833        0.009500    0.434018E-01    0.986844        0.431357E-04
    57     1.91609       0.52190       0.27658        0.012612    0.764988E-01    0.986921        0.760298E-04
    58     1.96406       0.50915       0.64847        0.029571    0.420513        0.987344        0.417935E-03
    59     2.01357       0.49663      -0.63698        0.029047    0.405747        0.987751        0.403259E-03
    60     2.08566       0.47946      -0.27851        0.012700    0.775660E-01    0.987829        0.770904E-04
    61     2.14687       0.46579       0.21720        0.009905    0.471766E-01    0.987877        0.468874E-04
    62     2.18608       0.45744      -0.91762        0.041844    0.842021        0.988723        0.836858E-03
    63     2.19878       0.45480      -0.96496E-01    0.004400    0.931145E-02    0.988732        0.925435E-05
    64     2.22103       0.45024        1.3362        0.060934     1.78555        0.990526        0.177460E-02
    65     2.29635       0.43547      -0.38392        0.017507    0.147392        0.990674        0.146488E-03
    66     2.32450       0.43020      -0.17683        0.008064    0.312700E-01    0.990706        0.310783E-04
    67     2.34246       0.42690      -0.40851        0.018629    0.166882        0.990873        0.165859E-03
    68     2.36952       0.42203       0.35199        0.016051    0.123895        0.990998        0.123135E-03
    69     2.44550       0.40891      -0.37117        0.016926    0.137767        0.991136        0.136922E-03
    70     2.50304       0.39951      -0.16988E-01    0.000775    0.288594E-03    0.991136        0.286824E-06
    71     2.54009       0.39369       0.27335E-01    0.001246    0.747188E-03    0.991137        0.742607E-06
    72     2.60529       0.38383       0.63678        0.029038    0.405491        0.991545        0.403005E-03
    73     2.64105       0.37864       0.90100E-01    0.004109    0.811806E-02    0.991553        0.806829E-05
    74     2.65807       0.37621      -0.70553E-01    0.003217    0.497768E-02    0.991558        0.494716E-05
    75     2.68555       0.37236       -1.3134        0.059894     1.72513        0.993291        0.171456E-02
    76     2.75076       0.36354      -0.34654        0.015803    0.120090        0.993412        0.119353E-03
    77     2.77679       0.36013      -0.78440E-01    0.003577    0.615280E-02    0.993418        0.611507E-05
    78     2.83000       0.35336      -0.32427E-01    0.001479    0.105153E-02    0.993419        0.104509E-05
    79     2.84145       0.35193      -0.12537E-01    0.000572    0.157183E-03    0.993419        0.156220E-06
    80     2.95680       0.33820       0.35215E-01    0.001606    0.124009E-02    0.993420        0.123249E-05
    81     3.01801       0.33134      -0.85387E-01    0.003894    0.729097E-02    0.993428        0.724627E-05
    82     3.03807       0.32916       0.85902        0.039172    0.737908        0.994169        0.733383E-03
    83     3.07623       0.32507      -0.40933        0.018666    0.167555        0.994337        0.166527E-03
    84     3.10592       0.32197       0.23991        0.010940    0.575554E-01    0.994395        0.572025E-04
    85     3.12407       0.32010      -0.29102        0.013271    0.846928E-01    0.994480        0.841735E-04
    86     3.16838       0.31562       0.36242        0.016527    0.131346        0.994612        0.130540E-03
    87     3.24050       0.30859       0.69197        0.031554    0.478818        0.995093        0.475882E-03
    88     3.28603       0.30432       0.31946        0.014568    0.102053        0.995196        0.101427E-03
    89     3.29573       0.30342      -0.43222        0.019710    0.186816        0.995383        0.185670E-03
    90     3.35434       0.29812       0.22578E-01    0.001030    0.509774E-03    0.995384        0.506648E-06
    91     3.37640       0.29617      -0.63959E-01    0.002917    0.409078E-02    0.995388        0.406570E-05
    92     3.42456       0.29201       0.12267        0.005594    0.150490E-01    0.995403        0.149567E-04
    93     3.51535       0.28447      -0.10997        0.005015    0.120933E-01    0.995415        0.120191E-04
    94     3.52890       0.28337      -0.39623        0.018068    0.156998        0.995573        0.156035E-03
    95     3.55181       0.28155      -0.12422        0.005665    0.154317E-01    0.995589        0.153371E-04
    96     3.57343       0.27984      -0.18859        0.008600    0.355672E-01    0.995624        0.353491E-04
    97     3.62537       0.27583       0.88133        0.040189    0.776743        0.996405        0.771981E-03
    98     3.66199       0.27308       0.60919E-01    0.002778    0.371108E-02    0.996408        0.368832E-05
    99     3.68983       0.27101       0.26477        0.012074    0.701044E-01    0.996479        0.696746E-04
   100     3.73005       0.26809       0.17795        0.008115    0.316671E-01    0.996511        0.314729E-04
   101     3.75048       0.26663      -0.10187        0.004646    0.103782E-01    0.996521        0.103145E-04
   102     3.79418       0.26356       0.79525E-01    0.003626    0.632418E-02    0.996528        0.628541E-05
   103     3.88500       0.25740      -0.15921        0.007260    0.253462E-01    0.996553        0.251908E-04
   104     3.90165       0.25630       0.28733        0.013102    0.825576E-01    0.996636        0.820514E-04
   105     3.92059       0.25506       0.12147        0.005539    0.147558E-01    0.996651        0.146653E-04
   106     3.95109       0.25309      -0.39545        0.018033    0.156383        0.996808        0.155424E-03
   107     4.03174       0.24803      -0.92139E-01    0.004202    0.848964E-02    0.996816        0.843759E-05
   108     4.04114       0.24745       0.31840        0.014519    0.101378        0.996918        0.100756E-03
   109     4.09314       0.24431       0.54807        0.024992    0.300379        0.997220        0.298537E-03
   110     4.09936       0.24394       0.14302        0.006522    0.204535E-01    0.997241        0.203281E-04
   111     4.11302       0.24313       0.46791        0.021337    0.218944        0.997461        0.217601E-03
   112     4.14035       0.24153      -0.22563E-01    0.001029    0.509102E-03    0.997461        0.505980E-06
   113     4.23961       0.23587       0.92197E-01    0.004204    0.850030E-02    0.997470        0.844818E-05
   114     4.26791       0.23431       0.10363E-01    0.000473    0.107389E-03    0.997470        0.106731E-06
   115     4.32811       0.23105       0.10707        0.004883    0.114642E-01    0.997481        0.113939E-04
   116     4.35348       0.22970      -0.64524E-01    0.002942    0.416340E-02    0.997485        0.413787E-05
   117     4.42393       0.22604      -0.85982E-02    0.000392    0.739283E-04    0.997486        0.734750E-07
   118     4.46211       0.22411       0.41346        0.018854    0.170945        0.997657        0.169897E-03
   119     4.47125       0.22365       0.62257        0.028390    0.387598        0.998047        0.385221E-03
   120     4.48161       0.22313       0.44541E-01    0.002031    0.198393E-02    0.998049        0.197177E-05
   121     4.53988       0.22027      -0.92939E-01    0.004238    0.863773E-02    0.998057        0.858477E-05
   122     4.57441       0.21861       0.98298E-01    0.004482    0.966252E-02    0.998067        0.960327E-05
   123     4.58671       0.21802       0.10105        0.004608    0.102119E-01    0.998077        0.101493E-04
   124     4.60229       0.21728       0.19508E-01    0.000890    0.380544E-03    0.998078        0.378211E-06
   125     4.60608       0.21710      -0.65060E-01    0.002967    0.423284E-02    0.998082        0.420688E-05
   126     4.64342       0.21536      -0.10188E-01    0.000465    0.103790E-03    0.998082        0.103153E-06
   127     4.73622       0.21114       0.52187E-01    0.002380    0.272345E-02    0.998085        0.270675E-05
   128     4.77469       0.20944       0.11981        0.005464    0.143556E-01    0.998099        0.142676E-04
   129     4.82593       0.20721      -0.37856        0.017263    0.143308        0.998243        0.142430E-03
   130     4.85139       0.20613       0.36124        0.016473    0.130494        0.998374        0.129694E-03
   131     4.86226       0.20567      -0.35472        0.016175    0.125824        0.998501        0.125053E-03
   132     4.88017       0.20491       0.52568E-01    0.002397    0.276336E-02    0.998504        0.274641E-05
   133     4.91764       0.20335       0.12701        0.005792    0.161311E-01    0.998520        0.160322E-04
   134     5.07376       0.19709       0.15704        0.007161    0.246605E-01    0.998545        0.245093E-04
   135     5.10573       0.19586      -0.55999E-01    0.002554    0.313584E-02    0.998548        0.311662E-05
   136     5.12465       0.19514       0.61540E-01    0.002806    0.378715E-02    0.998551        0.376393E-05
   137     5.16139       0.19375       0.31679        0.014446    0.100355        0.998652        0.997397E-04
   138     5.20733       0.19204      -0.30874        0.014079    0.953223E-01    0.998748        0.947378E-04
   139     5.24688       0.19059      -0.30721        0.014009    0.943757E-01    0.998843        0.937970E-04
   140     5.28207       0.18932       0.64988E-01    0.002963    0.422338E-02    0.998847        0.419748E-05
   141     5.33873       0.18731       0.12373E-01    0.000564    0.153101E-03    0.998847        0.152162E-06
   142     5.35722       0.18666       0.41477E-01    0.001891    0.172032E-02    0.998849        0.170977E-05
   143     5.40187       0.18512       0.44483E-01    0.002028    0.197872E-02    0.998851        0.196659E-05
   144     5.43246       0.18408       0.13858        0.006320    0.192057E-01    0.998870        0.190880E-04
   145     5.46504       0.18298      -0.24617E-01    0.001123    0.605999E-03    0.998871        0.602283E-06
   146     5.49355       0.18203       0.16136        0.007358    0.260386E-01    0.998897        0.258790E-04
   147     5.49468       0.18199      -0.23783        0.010845    0.565611E-01    0.998954        0.562143E-04
   148     5.51956       0.18117      -0.23457        0.010697    0.550229E-01    0.999009        0.546855E-04
   149     5.56549       0.17968      -0.17091        0.007794    0.292098E-01    0.999039        0.290307E-04
   150     5.59140       0.17885      -0.48874E-01    0.002229    0.238869E-02    0.999041        0.237405E-05
   151     5.61460       0.17811       0.16977        0.007742    0.288235E-01    0.999070        0.286468E-04
   152     5.65035       0.17698       0.15907E-01    0.000725    0.253020E-03    0.999070        0.251468E-06
   153     5.70063       0.17542       0.35794E-03    0.000016    0.128123E-06    0.999070        0.127337E-09
   154     5.74147       0.17417      -0.16623        0.007580    0.276321E-01    0.999098        0.274627E-04
   155     5.75458       0.17377      -0.38662E-02    0.000176    0.149477E-04    0.999098        0.148561E-07
   156     5.78247       0.17294      -0.21309        0.009717    0.454092E-01    0.999144        0.451307E-04
   157     5.78633       0.17282      -0.78758E-04    0.000004    0.620289E-08    0.999144        0.616486E-11
   158     5.81677       0.17192       0.16450        0.007501    0.270605E-01    0.999171        0.268946E-04
   159     5.82547       0.17166       0.12619        0.005754    0.159230E-01    0.999187        0.158253E-04
   160     5.85776       0.17071      -0.35579E-01    0.001622    0.126588E-02    0.999188        0.125812E-05
   161     5.87777       0.17013      -0.74647E-01    0.003404    0.557210E-02    0.999194        0.553794E-05
   162     5.90245       0.16942       0.55263E-01    0.002520    0.305402E-02    0.999197        0.303529E-05
   163     5.92157       0.16887      -0.78821E-02    0.000359    0.621281E-04    0.999197        0.617472E-07
   164     5.94467       0.16822       0.21648E-02    0.000099    0.468634E-05    0.999197        0.465760E-08
   165     5.96079       0.16776      -0.69245E-02    0.000316    0.479490E-04    0.999197        0.476550E-07
   166     5.98398       0.16711      -0.19764        0.009013    0.390628E-01    0.999236        0.388233E-04
   167     5.99029       0.16694       0.28124E-01    0.001282    0.790944E-03    0.999237        0.786094E-06
   168     5.99933       0.16669       0.83702E-01    0.003817    0.700601E-02    0.999244        0.696305E-05
   169     6.00478       0.16653      -0.38072E-02    0.000174    0.144946E-04    0.999244        0.144057E-07
   170     6.02846       0.16588      -0.36185E-02    0.000165    0.130932E-04    0.999244        0.130130E-07
   171     6.04720       0.16537       0.58564E-01    0.002671    0.342979E-02    0.999247        0.340876E-05
   172     6.04762       0.16535      -0.15936E-01    0.000727    0.253948E-03    0.999248        0.252391E-06
   173     6.04989       0.16529       0.35442E-02    0.000162    0.125614E-04    0.999248        0.124844E-07
   174     6.07843       0.16452       0.45607E-02    0.000208    0.208002E-04    0.999248        0.206726E-07
   175     6.10846       0.16371      -0.18113E-01    0.000826    0.328098E-03    0.999248        0.326086E-06
   176     6.12919       0.16315      -0.38309E-02    0.000175    0.146757E-04    0.999248        0.145857E-07
   177     6.17823       0.16186       0.98802E-02    0.000451    0.976185E-04    0.999248        0.970199E-07
   178     6.26637       0.15958       0.71976E-02    0.000328    0.518056E-04    0.999248        0.514880E-07
   179     6.34471       0.15761      -0.20910E-02    0.000095    0.437218E-05    0.999248        0.434537E-08
   180     6.42342       0.15568       0.11321E-01    0.000516    0.128159E-03    0.999248        0.127373E-06
   181     6.44875       0.15507      -0.55809E-02    0.000254    0.311468E-04    0.999248        0.309558E-07
   182     6.46249       0.15474      -0.22147E-02    0.000101    0.490480E-05    0.999248        0.487472E-08
   183     6.57273       0.15214       0.98577E-03    0.000045    0.971733E-06    0.999248        0.965775E-09
   184     6.60231       0.15146       0.17795E-01    0.000811    0.316662E-03    0.999249        0.314720E-06
   185     6.61667       0.15113       0.51836        0.023638    0.268693        0.999519        0.267046E-03
   186     6.61722       0.15112       0.13386        0.006104    0.179192E-01    0.999537        0.178094E-04
   187     6.68046       0.14969       0.28220E-02    0.000129    0.796351E-05    0.999537        0.791468E-08
   188     6.80709       0.14691      -0.61422E-01    0.002801    0.377271E-02    0.999540        0.374958E-05
   189     6.83832       0.14623      -0.17660E-01    0.000805    0.311871E-03    0.999541        0.309959E-06
   190     6.85206       0.14594      -0.89027E-01    0.004060    0.792580E-02    0.999549        0.787720E-05
   191     6.89785       0.14497      -0.52634E-01    0.002400    0.277035E-02    0.999551        0.275337E-05
   192     6.94991       0.14389       0.16066        0.007326    0.258120E-01    0.999577        0.256537E-04
   193     7.01863       0.14248       0.28336E-01    0.001292    0.802924E-03    0.999578        0.798001E-06
   194     7.09743       0.14090      -0.11638E-01    0.000531    0.135436E-03    0.999578        0.134606E-06
   195     7.14497       0.13996      -0.18053E-02    0.000082    0.325921E-05    0.999578        0.323923E-08
   196     7.15961       0.13967       0.41144E-01    0.001876    0.169283E-02    0.999580        0.168245E-05
   197     7.23752       0.13817      -0.15301        0.006978    0.234134E-01    0.999604        0.232698E-04
   198     7.26047       0.13773       0.75545E-01    0.003445    0.570704E-02    0.999609        0.567205E-05
   199     7.37884       0.13552      -0.39202E-01    0.001788    0.153683E-02    0.999611        0.152741E-05
   200     7.44934       0.13424       0.70965E-01    0.003236    0.503598E-02    0.999616        0.500510E-05
   201     7.48874       0.13353       0.27496E-01    0.001254    0.756045E-03    0.999617        0.751409E-06
   202     7.52987       0.13280      -0.37505E-01    0.001710    0.140665E-02    0.999618        0.139803E-05
   203     7.57727       0.13197       0.89394E-01    0.004076    0.799135E-02    0.999626        0.794235E-05
   204     7.62463       0.13115      -0.53491E-01    0.002439    0.286132E-02    0.999629        0.284377E-05
   205     7.70912       0.12972      -0.12610        0.005750    0.159022E-01    0.999645        0.158047E-04
   206     7.76719       0.12875      -0.77853E-03    0.000036    0.606106E-06    0.999645        0.602390E-09
   207     7.82940       0.12772       0.75813E-01    0.003457    0.574768E-02    0.999651        0.571244E-05
   208     7.88873       0.12676      -0.23395E-01    0.001067    0.547334E-03    0.999651        0.543978E-06
   209     7.97886       0.12533      -0.33373E-01    0.001522    0.111374E-02    0.999652        0.110691E-05
   210     8.04304       0.12433       0.10774E-01    0.000491    0.116088E-03    0.999653        0.115376E-06
   211     8.08339       0.12371      -0.10371        0.004729    0.107557E-01    0.999663        0.106898E-04
   212     8.12590       0.12306       0.20362E-01    0.000929    0.414603E-03    0.999664        0.412061E-06
   213     8.21257       0.12176      -0.77604E-01    0.003539    0.602244E-02    0.999670        0.598552E-05
   214     8.28687       0.12067       0.39558E-01    0.001804    0.156483E-02    0.999671        0.155523E-05
   215     8.30709       0.12038       0.17689E-01    0.000807    0.312910E-03    0.999672        0.310992E-06
   216     8.40587       0.11896       0.79649E-01    0.003632    0.634403E-02    0.999678        0.630513E-05
   217     8.42496       0.11869       0.36253E-01    0.001653    0.131430E-02    0.999679        0.130624E-05
   218     8.48173       0.11790       0.86894E-01    0.003962    0.755065E-02    0.999687        0.750435E-05
   219     8.51584       0.11743       0.21749E-01    0.000992    0.473007E-03    0.999687        0.470107E-06
   220     8.57882       0.11657      -0.92251E-01    0.004207    0.851016E-02    0.999696        0.845798E-05
   221     8.72084       0.11467      -0.93493E-02    0.000426    0.874101E-04    0.999696        0.868742E-07
   222     8.81158       0.11349      -0.19877E-01    0.000906    0.395092E-03    0.999696        0.392669E-06
   223     9.04312       0.11058      -0.33394E-01    0.001523    0.111513E-02    0.999698        0.110829E-05
   224     9.08974       0.11001      -0.11947        0.005448    0.142730E-01    0.999712        0.141855E-04
   225     9.15510       0.10923      -0.60062E-01    0.002739    0.360743E-02    0.999716        0.358531E-05
   226     9.17390       0.10900      -0.35199E-01    0.001605    0.123900E-02    0.999717        0.123141E-05
   227     9.18904       0.10883      -0.71951E-01    0.003281    0.517698E-02    0.999722        0.514524E-05
   228     9.40710       0.10630       0.44338E-01    0.002022    0.196584E-02    0.999724        0.195378E-05
   229     9.45035       0.10582      -0.25539E-01    0.001165    0.652259E-03    0.999725        0.648260E-06
   230     9.59763       0.10419      -0.36629E-01    0.001670    0.134165E-02    0.999726        0.133342E-05
   231     9.64324       0.10370      -0.69839E-02    0.000318    0.487749E-04    0.999726        0.484759E-07
   232     9.69403       0.10316       0.33807E-01    0.001542    0.114288E-02    0.999727        0.113587E-05
   233     9.74964       0.10257      -0.13260E-01    0.000605    0.175831E-03    0.999727        0.174753E-06
   234     9.86188       0.10140      -0.71481E-01    0.003260    0.510947E-02    0.999732        0.507814E-05
   235     9.89233       0.10109       0.81302E-01    0.003707    0.661003E-02    0.999739        0.656950E-05
   236     9.95201       0.10048      -0.70735E-01    0.003226    0.500340E-02    0.999744        0.497272E-05
   237     10.0260       0.99741E-01  -0.37209E-01    0.001697    0.138448E-02    0.999746        0.137599E-05
   238     10.1144       0.98869E-01  -0.30557E-01    0.001393    0.933743E-03    0.999746        0.928018E-06
   239     10.1821       0.98211E-01  -0.16478E-01    0.000751    0.271521E-03    0.999747        0.269856E-06
   240     10.2470       0.97590E-01   0.18022E-01    0.000822    0.324807E-03    0.999747        0.322815E-06
   241     10.3493       0.96625E-01   0.16092E-01    0.000734    0.258948E-03    0.999747        0.257361E-06
   242     10.3832       0.96309E-01  -0.48715E-01    0.002221    0.237318E-02    0.999750        0.235863E-05
   243     10.5019       0.95221E-01   0.24657E-01    0.001124    0.607985E-03    0.999750        0.604257E-06
   244     10.6226       0.94139E-01   0.99616E-01    0.004543    0.992336E-02    0.999760        0.986251E-05
   245     10.6610       0.93800E-01  -0.10664E-02    0.000049    0.113711E-05    0.999760        0.113014E-08
   246     10.7066       0.93400E-01  -0.18607E-02    0.000085    0.346233E-05    0.999760        0.344111E-08
   247     10.7907       0.92672E-01   0.62278E-02    0.000284    0.387860E-04    0.999760        0.385482E-07
   248     10.8517       0.92151E-01  -0.18249E-01    0.000832    0.333033E-03    0.999761        0.330991E-06
   249     10.8712       0.91986E-01  -0.53695E-01    0.002449    0.288314E-02    0.999764        0.286546E-05
   250     10.9724       0.91138E-01   0.10620E-01    0.000484    0.112793E-03    0.999764        0.112102E-06
   251     11.0771       0.90276E-01   0.11407E-02    0.000052    0.130111E-05    0.999764        0.129314E-08
   252     11.1214       0.89917E-01   0.10634E-01    0.000485    0.113088E-03    0.999764        0.112394E-06
   253     11.1495       0.89691E-01  -0.58386E-01    0.002662    0.340897E-02    0.999767        0.338807E-05
   254     11.2208       0.89120E-01  -0.53358E-01    0.002433    0.284706E-02    0.999770        0.282961E-05
   255     11.2649       0.88772E-01   0.21426E-01    0.000977    0.459073E-03    0.999771        0.456258E-06
   256     11.2945       0.88539E-01  -0.18974E-01    0.000865    0.360022E-03    0.999771        0.357815E-06
   257     11.3725       0.87932E-01  -0.27834E-02    0.000127    0.774704E-05    0.999771        0.769954E-08
   258     11.3818       0.87859E-01  -0.19128E-01    0.000872    0.365869E-03    0.999771        0.363626E-06
   259     11.3847       0.87837E-01  -0.19627E-01    0.000895    0.385206E-03    0.999772        0.382844E-06
   260     11.3955       0.87754E-01  -0.78177E-02    0.000356    0.611163E-04    0.999772        0.607415E-07
   261     11.3983       0.87733E-01  -0.18659E-01    0.000851    0.348163E-03    0.999772        0.346028E-06
   262     11.4075       0.87662E-01   0.78382E-02    0.000357    0.614380E-04    0.999772        0.610613E-07
   263     11.4230       0.87543E-01   0.32441E-01    0.001479    0.105240E-02    0.999773        0.104594E-05
   264     11.4369       0.87436E-01   0.11884E-01    0.000542    0.141228E-03    0.999773        0.140362E-06
   265     11.4590       0.87268E-01  -0.23043E-01    0.001051    0.531003E-03    0.999774        0.527747E-06
   266     11.5350       0.86693E-01  -0.37532E-01    0.001711    0.140864E-02    0.999775        0.140001E-05
   267     11.6043       0.86175E-01   0.27583E-02    0.000126    0.760848E-05    0.999775        0.756183E-08
   268     11.6444       0.85878E-01  -0.28734E-02    0.000131    0.825635E-05    0.999775        0.820572E-08
   269     11.6720       0.85675E-01  -0.52487E-02    0.000239    0.275491E-04    0.999775        0.273802E-07
   270     11.7082       0.85410E-01  -0.27684E-01    0.001262    0.766418E-03    0.999776        0.761719E-06
   271     11.7123       0.85381E-01  -0.22470E-01    0.001025    0.504906E-03    0.999777        0.501810E-06
   272     11.7306       0.85247E-01   0.15744E-01    0.000718    0.247888E-03    0.999777        0.246368E-06
   273     11.7438       0.85151E-01   0.44140E-02    0.000201    0.194834E-04    0.999777        0.193639E-07
   274     11.7962       0.84773E-01   0.22116E-01    0.001008    0.489108E-03    0.999777        0.486109E-06
   275     11.8064       0.84700E-01   0.23377E-01    0.001066    0.546481E-03    0.999778        0.543131E-06
   276     11.8553       0.84351E-01   0.84515E-02    0.000385    0.714287E-04    0.999778        0.709907E-07
   277     11.8980       0.84047E-01  -0.15392E-01    0.000702    0.236926E-03    0.999778        0.235474E-06
   278     11.9329       0.83802E-01  -0.70790E-02    0.000323    0.501121E-04    0.999778        0.498049E-07
   279     11.9645       0.83581E-01   0.41436E-02    0.000189    0.171697E-04    0.999778        0.170645E-07
   280     11.9987       0.83342E-01   0.36683E-01    0.001673    0.134563E-02    0.999780        0.133737E-05
   281     12.0274       0.83144E-01   0.45948E-01    0.002095    0.211125E-02    0.999782        0.209831E-05
   282     12.0332       0.83104E-01   0.37351E-01    0.001703    0.139511E-02    0.999783        0.138656E-05
   283     12.0439       0.83029E-01  -0.20196E-01    0.000921    0.407868E-03    0.999784        0.405367E-06
   284     12.0509       0.82981E-01  -0.17310E-01    0.000789    0.299631E-03    0.999784        0.297793E-06
   285     12.0535       0.82963E-01   0.15156E-01    0.000691    0.229712E-03    0.999784        0.228303E-06
   286     12.0675       0.82867E-01   0.51867E-02    0.000237    0.269017E-04    0.999784        0.267368E-07
   287     12.0878       0.82728E-01   0.87476E-03    0.000040    0.765199E-06    0.999784        0.760507E-09
   288     12.1200       0.82508E-01  -0.30578E-02    0.000139    0.935028E-05    0.999784        0.929295E-08
   289     12.1369       0.82393E-01  -0.52162E-02    0.000238    0.272092E-04    0.999784        0.270423E-07
   290     12.1923       0.82019E-01  -0.27954E-02    0.000127    0.781401E-05    0.999784        0.776610E-08
   291     12.2541       0.81605E-01  -0.20903E-02    0.000095    0.436954E-05    0.999784        0.434274E-08
   292     12.2783       0.81444E-01  -0.12641E-02    0.000058    0.159805E-05    0.999784        0.158825E-08
   293     12.3293       0.81107E-01  -0.11488E-01    0.000524    0.131967E-03    0.999784        0.131158E-06
   294     12.3471       0.80991E-01  -0.29617E-02    0.000135    0.877161E-05    0.999784        0.871782E-08
   295     12.3930       0.80691E-01  -0.16011E-02    0.000073    0.256353E-05    0.999784        0.254781E-08
   296     12.4366       0.80408E-01   0.13917E-01    0.000635    0.193681E-03    0.999785        0.192493E-06
   297     12.5480       0.79694E-01   0.14517E-01    0.000662    0.210730E-03    0.999785        0.209438E-06
   298     12.5545       0.79652E-01  -0.39747E-01    0.001812    0.157982E-02    0.999786        0.157013E-05
   299     12.6062       0.79326E-01  -0.26921E-01    0.001228    0.724746E-03    0.999787        0.720302E-06
   300     12.6342       0.79150E-01  -0.10053E-01    0.000458    0.101067E-03    0.999787        0.100448E-06
   301     12.6737       0.78903E-01   0.17188E-01    0.000784    0.295437E-03    0.999787        0.293625E-06
   302     12.7031       0.78721E-01  -0.57898E-02    0.000264    0.335221E-04    0.999787        0.333166E-07
   303     12.7808       0.78242E-01   0.31845E-02    0.000145    0.101414E-04    0.999787        0.100792E-07
   304     12.8184       0.78013E-01  -0.12156E-01    0.000554    0.147764E-03    0.999788        0.146858E-06
   305     12.8210       0.77997E-01  -0.36061E-02    0.000164    0.130041E-04    0.999788        0.129244E-07
   306     12.8353       0.77910E-01   0.12129E-01    0.000553    0.147108E-03    0.999788        0.146206E-06
   307     12.8407       0.77877E-01   0.25879E-02    0.000118    0.669712E-05    0.999788        0.665605E-08
   308     12.8729       0.77683E-01   0.23652E-01    0.001079    0.559441E-03    0.999788        0.556011E-06
   309     12.8766       0.77660E-01  -0.94825E-02    0.000432    0.899177E-04    0.999788        0.893664E-07
   310     12.9247       0.77371E-01  -0.87339E-02    0.000398    0.762815E-04    0.999789        0.758138E-07
   311     12.9685       0.77110E-01   0.37743E-01    0.001721    0.142450E-02    0.999790        0.141577E-05
   312     12.9713       0.77093E-01   0.49733E-02    0.000227    0.247342E-04    0.999790        0.245825E-07
   313     12.9762       0.77064E-01  -0.59686E-02    0.000272    0.356247E-04    0.999790        0.354063E-07
   314     13.0015       0.76914E-01  -0.12765E-01    0.000582    0.162950E-03    0.999790        0.161950E-06
   315     13.0233       0.76785E-01  -0.13004E-01    0.000593    0.169097E-03    0.999790        0.168060E-06
   316     13.0457       0.76654E-01  -0.80091E-02    0.000365    0.641461E-04    0.999790        0.637528E-07
   317     13.0901       0.76394E-01   0.21926E-01    0.001000    0.480746E-03    0.999791        0.477798E-06
   318     13.0991       0.76341E-01  -0.22109E-01    0.001008    0.488823E-03    0.999791        0.485826E-06
   319     13.1170       0.76237E-01   0.30282E-01    0.001381    0.916990E-03    0.999792        0.911367E-06
   320     13.1451       0.76074E-01  -0.18307E-01    0.000835    0.335143E-03    0.999793        0.333088E-06
   321     13.1586       0.75996E-01  -0.77529E-02    0.000354    0.601073E-04    0.999793        0.597387E-07
   322     13.1872       0.75831E-01   0.16279E-01    0.000742    0.265001E-03    0.999793        0.263376E-06
   323     13.1993       0.75762E-01  -0.27479E-01    0.001253    0.755074E-03    0.999794        0.750444E-06
   324     13.2036       0.75737E-01   0.18854E-01    0.000860    0.355480E-03    0.999794        0.353300E-06
   325     13.2239       0.75621E-01  -0.15869E-01    0.000724    0.251825E-03    0.999794        0.250281E-06
   326     13.2308       0.75582E-01  -0.67300E-02    0.000307    0.452934E-04    0.999794        0.450157E-07
   327     13.2410       0.75523E-01  -0.26435E-01    0.001205    0.698818E-03    0.999795        0.694533E-06
   328     13.2590       0.75421E-01  -0.53704E-02    0.000245    0.288411E-04    0.999795        0.286643E-07
   329     13.2661       0.75380E-01   0.20646E-02    0.000094    0.426259E-05    0.999795        0.423646E-08
   330     13.2895       0.75247E-01   0.10204E-02    0.000047    0.104122E-05    0.999795        0.103483E-08
   331     13.2914       0.75237E-01   0.31963E-02    0.000146    0.102162E-04    0.999795        0.101536E-07
   332     13.3039       0.75166E-01   0.11273E-01    0.000514    0.127092E-03    0.999795        0.126312E-06
   333     13.3299       0.75020E-01   0.82744E-02    0.000377    0.684652E-04    0.999795        0.680454E-07
   334     13.3363       0.74983E-01  -0.14339E-02    0.000065    0.205614E-05    0.999795        0.204354E-08
   335     13.3543       0.74882E-01  -0.21722E-01    0.000991    0.471841E-03    0.999796        0.468948E-06
   336     13.3672       0.74810E-01  -0.14547E-01    0.000663    0.211627E-03    0.999796        0.210329E-06
   337     13.3717       0.74785E-01  -0.26309E-01    0.001200    0.692170E-03    0.999797        0.687926E-06
   338     13.3805       0.74736E-01  -0.11985E-01    0.000547    0.143636E-03    0.999797        0.142756E-06
   339     13.3861       0.74704E-01   0.20385E-01    0.000930    0.415562E-03    0.999797        0.413014E-06
   340     13.3973       0.74642E-01   0.16321E-02    0.000074    0.266389E-05    0.999797        0.264756E-08
   341     13.4528       0.74334E-01   0.32214E-03    0.000015    0.103777E-06    0.999797        0.103141E-09
   342     13.4595       0.74297E-01   0.88069E-03    0.000040    0.775616E-06    0.999797        0.770860E-09
   343     13.4695       0.74242E-01   0.17321E-02    0.000079    0.300024E-05    0.999797        0.298184E-08
   344     13.4956       0.74098E-01  -0.17261E-02    0.000079    0.297951E-05    0.999797        0.296124E-08
   345     13.5125       0.74006E-01   0.88943E-03    0.000041    0.791090E-06    0.999797        0.786239E-09
   346     13.5201       0.73964E-01   0.35720E-03    0.000016    0.127593E-06    0.999797        0.126811E-09
   347     13.5244       0.73941E-01  -0.24867E-03    0.000011    0.618345E-07    0.999797        0.614553E-10
   348     13.5486       0.73808E-01  -0.12860E-03    0.000006    0.165383E-07    0.999797        0.164369E-10
   349     13.5530       0.73784E-01   0.63496E-03    0.000029    0.403176E-06    0.999797        0.400704E-09
   350     13.5708       0.73687E-01   0.90419E-03    0.000041    0.817561E-06    0.999797        0.812548E-09
   351     13.5748       0.73666E-01  -0.16955E-02    0.000077    0.287467E-05    0.999797        0.285704E-08
   352     13.5887       0.73591E-01   0.44822E-03    0.000020    0.200905E-06    0.999797        0.199673E-09
   353     13.6157       0.73445E-01   0.62128E-03    0.000028    0.385992E-06    0.999797        0.383626E-09
   354     13.6550       0.73233E-01   0.24467E-03    0.000011    0.598655E-07    0.999797        0.594985E-10
   355     13.6895       0.73049E-01  -0.47593E-03    0.000022    0.226507E-06    0.999797        0.225118E-09
   356     13.6956       0.73016E-01  -0.10043E-03    0.000005    0.100854E-07    0.999797        0.100235E-10
   357     13.7102       0.72938E-01  -0.21055E-03    0.000010    0.443292E-07    0.999797        0.440574E-10
   358     13.7630       0.72659E-01   0.52256E-03    0.000024    0.273064E-06    0.999797        0.271390E-09
   359     13.7799       0.72570E-01  -0.33656E-04    0.000002    0.113271E-08    0.999797        0.112577E-11
   360     13.8096       0.72413E-01  -0.40990E-03    0.000019    0.168019E-06    0.999797        0.166988E-09
   361     13.8422       0.72243E-01   0.45651E-03    0.000021    0.208400E-06    0.999797        0.207122E-09
   362     13.8584       0.72159E-01  -0.35928E-03    0.000016    0.129079E-06    0.999797        0.128288E-09
   363     13.9199       0.71839E-01  -0.10430E-03    0.000005    0.108794E-07    0.999797        0.108127E-10
   364     13.9624       0.71621E-01   0.97957E-04    0.000004    0.959551E-08    0.999797        0.953668E-11
   365     13.9828       0.71516E-01  -0.16661E-03    0.000008    0.277590E-07    0.999797        0.275888E-10
   366     14.0150       0.71352E-01   0.11662E-03    0.000005    0.136013E-07    0.999797        0.135179E-10
   367     14.0364       0.71243E-01   0.21778E-03    0.000010    0.474291E-07    0.999797        0.471383E-10
   368     14.0779       0.71033E-01  -0.11732E-03    0.000005    0.137642E-07    0.999797        0.136798E-10
   369     14.1131       0.70856E-01  -0.24453E-03    0.000011    0.597944E-07    0.999797        0.594278E-10
   370     14.1247       0.70798E-01   0.12565E-03    0.000006    0.157884E-07    0.999797        0.156916E-10
   371     14.1965       0.70440E-01  -0.15184E-03    0.000007    0.230565E-07    0.999797        0.229152E-10
   372     14.2193       0.70327E-01  -0.36681E-03    0.000017    0.134552E-06    0.999797        0.133727E-09
   373     14.2404       0.70223E-01  -0.19334E-03    0.000009    0.373796E-07    0.999797        0.371504E-10
   374     14.2485       0.70183E-01   0.19684E-03    0.000009    0.387457E-07    0.999797        0.385081E-10
   375     14.2659       0.70097E-01   0.39548E-03    0.000018    0.156405E-06    0.999797        0.155446E-09
   376     14.3136       0.69864E-01  -0.20920E-03    0.000010    0.437629E-07    0.999797        0.434945E-10
   377     14.3250       0.69808E-01  -0.52297E-03    0.000024    0.273495E-06    0.999797        0.271818E-09
   378     14.3337       0.69766E-01   0.31559E-03    0.000014    0.995998E-07    0.999797        0.989891E-10
   379     14.3763       0.69559E-01   0.50645E-03    0.000023    0.256493E-06    0.999797        0.254921E-09
   380     14.3932       0.69477E-01   0.10337E-02    0.000047    0.106856E-05    0.999797        0.106201E-08
   381     14.4299       0.69301E-01   0.58326E-02    0.000266    0.340191E-04    0.999797        0.338105E-07
   382     14.4431       0.69237E-01   0.61660E-04    0.000003    0.380193E-08    0.999797        0.377862E-11
   383     14.4493       0.69207E-01   0.40525        0.018480    0.164230        0.999962        0.163223E-03
   384     14.4493       0.69207E-01  -0.64692E-01    0.002950    0.418500E-02    0.999967        0.415934E-05
   385     14.4547       0.69182E-01   0.29711E-02    0.000135    0.882767E-05    0.999967        0.877354E-08
   386     14.4813       0.69055E-01  -0.24995E-03    0.000011    0.624771E-07    0.999967        0.620941E-10
   387     14.5229       0.68857E-01   0.34727E-03    0.000016    0.120598E-06    0.999967        0.119858E-09
   388     14.6184       0.68407E-01  -0.87537E-03    0.000040    0.766279E-06    0.999967        0.761581E-09
   389     14.6297       0.68354E-01   0.23874E-03    0.000011    0.569982E-07    0.999967        0.566487E-10
   390     14.6531       0.68245E-01  -0.21561E-03    0.000010    0.464892E-07    0.999967        0.462042E-10
   391     14.6816       0.68113E-01   0.23532E-02    0.000107    0.553768E-05    0.999967        0.550372E-08
   392     14.7340       0.67870E-01  -0.51354E-03    0.000023    0.263725E-06    0.999967        0.262108E-09
   393     14.7762       0.67676E-01  -0.54700E-03    0.000025    0.299212E-06    0.999967        0.297377E-09
   394     14.8209       0.67472E-01  -0.16635E-03    0.000008    0.276729E-07    0.999967        0.275033E-10
   395     14.8816       0.67197E-01  -0.37954E-04    0.000002    0.144054E-08    0.999967        0.143171E-11
   396     14.9484       0.66897E-01  -0.92125E-05    0.000000    0.848696E-10    0.999967        0.843493E-13
   397     15.0028       0.66654E-01  -0.54102E-03    0.000025    0.292700E-06    0.999967        0.290906E-09
   398     15.0453       0.66466E-01  -0.77740E-03    0.000035    0.604355E-06    0.999967        0.600650E-09
   399     15.0901       0.66269E-01  -0.33946E-03    0.000015    0.115234E-06    0.999967        0.114527E-09
   400     15.1315       0.66087E-01   0.51179E-03    0.000023    0.261930E-06    0.999967        0.260324E-09
   401     15.1460       0.66024E-01   0.12104E-03    0.000006    0.146508E-07    0.999967        0.145609E-10
   402     15.2193       0.65706E-01  -0.49748E-03    0.000023    0.247483E-06    0.999967        0.245966E-09
   403     15.2307       0.65657E-01   0.22917E-03    0.000010    0.525211E-07    0.999967        0.521991E-10
   404     15.2522       0.65564E-01   0.54431E-03    0.000025    0.296275E-06    0.999967        0.294458E-09
   405     15.2826       0.65434E-01  -0.52670E-04    0.000002    0.277408E-08    0.999967        0.275707E-11
   406     15.3358       0.65207E-01   0.51021E-03    0.000023    0.260314E-06    0.999967        0.258718E-09
   407     15.3614       0.65098E-01   0.26276E-04    0.000001    0.690406E-09    0.999967        0.686173E-12
   408     15.3823       0.65010E-01   0.50770E-04    0.000002    0.257759E-08    0.999967        0.256178E-11
   409     15.4519       0.64717E-01  -0.58447E-02    0.000267    0.341603E-04    0.999967        0.339509E-07
   410     15.5315       0.64385E-01   0.72025E-02    0.000328    0.518767E-04    0.999967        0.515586E-07
   411     15.5559       0.64284E-01   0.19475E-01    0.000888    0.379292E-03    0.999967        0.376966E-06
   412     15.5939       0.64128E-01   0.56984E-02    0.000260    0.324713E-04    0.999967        0.322722E-07
   413     15.5998       0.64103E-01  -0.26379E-01    0.001203    0.695852E-03    0.999968        0.691585E-06
   414     15.6344       0.63961E-01   0.17570E-01    0.000801    0.308697E-03    0.999968        0.306804E-06
   415     15.6394       0.63941E-01  -0.36333E-01    0.001657    0.132011E-02    0.999969        0.131202E-05
   416     15.6995       0.63696E-01  -0.45629E-01    0.002081    0.208197E-02    0.999972        0.206921E-05
   417     15.7759       0.63388E-01  -0.33441E-01    0.001525    0.111829E-02    0.999973        0.111143E-05
   418     15.8166       0.63225E-01   0.11820E-01    0.000539    0.139706E-03    0.999973        0.138849E-06
   419     15.8456       0.63109E-01   0.25308E-01    0.001154    0.640482E-03    0.999973        0.636555E-06
   420     15.8723       0.63003E-01  -0.10919E-01    0.000498    0.119217E-03    0.999974        0.118486E-06
   421     15.9328       0.62764E-01   0.66812E-01    0.003047    0.446387E-02    0.999978        0.443650E-05
   422     15.9552       0.62676E-01   0.36305E-01    0.001656    0.131805E-02    0.999979        0.130997E-05
   423     15.9847       0.62560E-01   0.15657E-02    0.000071    0.245150E-05    0.999979        0.243647E-08
   424     16.0326       0.62373E-01   0.28095E-01    0.001281    0.789351E-03    0.999980        0.784511E-06
   425     16.0892       0.62153E-01  -0.19991E-01    0.000912    0.399647E-03    0.999981        0.397197E-06
   426     16.1344       0.61979E-01  -0.43634E-02    0.000199    0.190393E-04    0.999981        0.189226E-07
   427     16.1632       0.61869E-01   0.55045E-01    0.002510    0.303001E-02    0.999984        0.301143E-05
   428     16.1637       0.61867E-01  -0.37005E-01    0.001687    0.136940E-02    0.999985        0.136100E-05
   429     16.1859       0.61782E-01  -0.23359E-01    0.001065    0.545647E-03    0.999986        0.542302E-06
   430     16.2320       0.61607E-01  -0.19244E-01    0.000878    0.370335E-03    0.999986        0.368065E-06
   431     16.2464       0.61552E-01   0.26169E-02    0.000119    0.684836E-05    0.999986        0.680637E-08
   432     16.2938       0.61373E-01   0.34949E-01    0.001594    0.122145E-02    0.999987        0.121396E-05
   433     16.3435       0.61187E-01  -0.22641E-01    0.001032    0.512599E-03    0.999988        0.509456E-06
   434     16.3741       0.61072E-01   0.39810E-02    0.000182    0.158484E-04    0.999988        0.157512E-07
   435     16.3979       0.60983E-01  -0.52046E-01    0.002373    0.270874E-02    0.999990        0.269213E-05
   436     16.4396       0.60829E-01   0.17386E-02    0.000079    0.302284E-05    0.999990        0.300431E-08
   437     16.5138       0.60555E-01  -0.41055E-01    0.001872    0.168552E-02    0.999992        0.167518E-05
   438     16.5222       0.60525E-01  -0.16082E-01    0.000733    0.258641E-03    0.999992        0.257055E-06
   439     16.5446       0.60443E-01   0.11413E-01    0.000520    0.130254E-03    0.999992        0.129455E-06
   440     16.5657       0.60366E-01  -0.50416E-03    0.000023    0.254174E-06    0.999992        0.252615E-09
   441     16.5950       0.60259E-01  -0.56899E-03    0.000026    0.323746E-06    0.999992        0.321761E-09
   442     16.6105       0.60203E-01   0.23906E-01    0.001090    0.571497E-03    0.999993        0.567992E-06
   443     16.6110       0.60201E-01   0.51053E-02    0.000233    0.260642E-04    0.999993        0.259044E-07
   444     16.6712       0.59984E-01  -0.24061E-03    0.000011    0.578916E-07    0.999993        0.575366E-10
   445     16.6784       0.59958E-01  -0.42474E-03    0.000019    0.180401E-06    0.999993        0.179295E-09
   446     16.7651       0.59648E-01  -0.23721E-02    0.000108    0.562672E-05    0.999993        0.559222E-08
   447     16.8147       0.59472E-01  -0.81125E-03    0.000037    0.658120E-06    0.999993        0.654085E-09
   448     16.8705       0.59275E-01  -0.95709E-02    0.000436    0.916016E-04    0.999993        0.910399E-07
   449     16.9199       0.59102E-01   0.28155E-02    0.000128    0.792698E-05    0.999993        0.787837E-08
   450     16.9263       0.59080E-01   0.95153E-02    0.000434    0.905413E-04    0.999993        0.899862E-07
   451     16.9599       0.58963E-01   0.76270E-02    0.000348    0.581713E-04    0.999993        0.578146E-07
   452     17.1145       0.58430E-01   0.21124E-02    0.000096    0.446231E-05    0.999993        0.443495E-08
   453     17.1432       0.58332E-01  -0.51851E-02    0.000236    0.268852E-04    0.999993        0.267203E-07
   454     17.2143       0.58091E-01   0.19523E-02    0.000089    0.381150E-05    0.999993        0.378813E-08
   455     17.2341       0.58025E-01   0.58403E-02    0.000266    0.341092E-04    0.999993        0.339000E-07
   456     17.2708       0.57901E-01  -0.59749E-02    0.000272    0.356994E-04    0.999993        0.354805E-07
   457     17.3736       0.57559E-01  -0.14259E-01    0.000650    0.203332E-03    0.999994        0.202085E-06
   458     17.3857       0.57519E-01   0.23067E-02    0.000105    0.532068E-05    0.999994        0.528805E-08
   459     17.4199       0.57406E-01  -0.75486E-02    0.000344    0.569821E-04    0.999994        0.566327E-07
   460     17.4793       0.57210E-01  -0.18583E-02    0.000085    0.345315E-05    0.999994        0.343198E-08
   461     17.5131       0.57100E-01  -0.12660E-01    0.000577    0.160279E-03    0.999994        0.159296E-06
   462     17.5325       0.57037E-01  -0.11385E-01    0.000519    0.129627E-03    0.999994        0.128832E-06
   463     17.5736       0.56903E-01   0.41783E-02    0.000191    0.174581E-04    0.999994        0.173511E-07
   464     17.6485       0.56662E-01  -0.10158E-01    0.000463    0.103181E-03    0.999994        0.102549E-06
   465     17.7007       0.56495E-01   0.61819E-03    0.000028    0.382163E-06    0.999994        0.379820E-09
   466     17.7544       0.56324E-01   0.73761E-03    0.000034    0.544068E-06    0.999994        0.540732E-09
   467     17.8153       0.56132E-01   0.95555E-02    0.000436    0.913083E-04    0.999994        0.907485E-07
   468     17.8268       0.56095E-01   0.73712E-02    0.000336    0.543340E-04    0.999994        0.540009E-07
   469     17.8600       0.55991E-01  -0.10787E-02    0.000049    0.116354E-05    0.999994        0.115640E-08
   470     17.8613       0.55987E-01  -0.11095E-02    0.000051    0.123109E-05    0.999994        0.122354E-08
   471     17.8872       0.55906E-01   0.46560E-02    0.000212    0.216783E-04    0.999994        0.215454E-07
   472     17.8911       0.55894E-01  -0.12128E-02    0.000055    0.147100E-05    0.999994        0.146198E-08
   473     17.8965       0.55877E-01   0.33586E-02    0.000153    0.112802E-04    0.999994        0.112110E-07
   474     17.9150       0.55819E-01  -0.64221E-02    0.000293    0.412431E-04    0.999994        0.409902E-07
   475     17.9387       0.55746E-01   0.16450E-02    0.000075    0.270607E-05    0.999994        0.268948E-08
   476     17.9564       0.55690E-01   0.11844E-01    0.000540    0.140282E-03    0.999994        0.139422E-06
   477     17.9656       0.55662E-01  -0.19244E-01    0.000878    0.370347E-03    0.999995        0.368077E-06
   478     17.9967       0.55566E-01   0.15676E-01    0.000715    0.245742E-03    0.999995        0.244235E-06
   479     18.0221       0.55487E-01   0.51368E-02    0.000234    0.263871E-04    0.999995        0.262253E-07
   480     18.0713       0.55336E-01   0.28375E-02    0.000129    0.805145E-05    0.999995        0.800208E-08
   481     18.0787       0.55314E-01  -0.33657E-02    0.000153    0.113276E-04    0.999995        0.112582E-07
   482     18.0981       0.55254E-01  -0.11563E-04    0.000001    0.133695E-09    0.999995        0.132875E-12
   483     18.1193       0.55190E-01  -0.73030E-03    0.000033    0.533339E-06    0.999995        0.530069E-09
   484     18.1566       0.55076E-01   0.85867E-02    0.000392    0.737315E-04    0.999995        0.732794E-07
   485     18.2139       0.54903E-01   0.24846E-02    0.000113    0.617301E-05    0.999995        0.613516E-08
   486     18.3085       0.54620E-01   0.26518E-02    0.000121    0.703192E-05    0.999995        0.698880E-08
   487     18.3308       0.54553E-01   0.44050E-02    0.000201    0.194038E-04    0.999995        0.192849E-07
   488     18.4377       0.54237E-01   0.73199E-02    0.000334    0.535807E-04    0.999995        0.532521E-07
   489     18.6112       0.53731E-01  -0.29641E-02    0.000135    0.878593E-05    0.999995        0.873206E-08
   490     18.6382       0.53653E-01  -0.15457E-01    0.000705    0.238906E-03    0.999996        0.237441E-06
   491     18.6476       0.53626E-01   0.28140E-01    0.001283    0.791853E-03    0.999996        0.786997E-06
   492     18.6827       0.53525E-01   0.84313E-02    0.000384    0.710867E-04    0.999996        0.706508E-07
[...]
   393   14.78       113.9      0.4910E+06   |    0.2992E-06    0.00  0.2412E-08    0.00  0.5150E-02    0.00
   394   14.82       103.8      0.4499E+06   |    0.2767E-07    0.00  0.7614E-08    0.00  0.1237E-02    0.00
   395   14.88       83.57      0.3653E+06   |    0.1441E-08    0.00  0.1502E-06    0.00  0.2529E-01    0.00
   396   14.95       103.6      0.4570E+06   |    0.8487E-10    0.00  0.2199E-10    0.00  0.1217E-02    0.00
   397   15.00       159.6      0.7091E+06   |    0.2927E-06    0.00  0.6601E-07    0.00  0.4093E-01    0.00
   398   15.05       132.8      0.5936E+06   |    0.6044E-06    0.00  0.5913E-08    0.00  0.8086E-02    0.00
   399   15.09       177.0      0.7958E+06   |    0.1152E-06    0.00  0.1571E-06    0.00  0.5074E-01    0.01
   400   15.13       120.3      0.5438E+06   |    0.2619E-06    0.00  0.4795E-07    0.00  0.1684E-02    0.00
   401   15.15       114.8      0.5197E+06   |    0.1465E-07    0.00  0.5752E-08    0.00  0.2287E-03    0.00
   402   15.22       70.72      0.3234E+06   |    0.2475E-06    0.00  0.5634E-07    0.00  0.4446E-01    0.00
   403   15.23       42.98      0.1968E+06   |    0.5252E-07    0.00  0.1666E-08    0.00  0.3864E-02    0.00
   404   15.25       10.19      0.4678E+05   |    0.2963E-06    0.00  0.1903E-07    0.00  0.8319E-02    0.00
   405   15.28       120.4      0.5553E+06   |    0.2774E-08    0.00  0.4623E-09    0.00  0.1692E-03    0.00
   406   15.34       32.97      0.1531E+06   |    0.2603E-06    0.00  0.4021E-06    0.00  0.1895E-03    0.00
   407   15.36       44.28      0.2063E+06   |    0.6904E-09    0.00  0.5699E-06    0.00  0.4477E-02    0.00
   408   15.38       110.1      0.5145E+06   |    0.2578E-08    0.00  0.3859E-07    0.00  0.1179E-03    0.00
   409   15.45       71.72      0.3380E+06   |    0.3416E-04    0.00  0.2188E-06    0.00  0.1507E-01    0.00
   410   15.53       93.15      0.4435E+06   |    0.5188E-04    0.00  0.2242E-03    0.00  0.1269E-01    0.00
   411   15.56       69.84      0.3336E+06   |    0.3793E-03    0.00  0.2693E-04    0.00  0.2930E-02    0.00
   412   15.59       67.83      0.3256E+06   |    0.3247E-04    0.00  0.1872E-02    0.00  0.3846E-02    0.00
   413   15.60       88.37      0.4245E+06   |    0.6959E-03    0.00  0.3200E-04    0.00  0.3071E-04    0.00
   414   15.63       146.5      0.7070E+06   |    0.3087E-03    0.00  0.2792E-04    0.00  0.8106E-03    0.00
   415   15.64       90.05      0.4348E+06   |    0.1320E-02    0.00  0.1962E-03    0.00  0.1333E-01    0.00
   416   15.70       90.07      0.4382E+06   |    0.2082E-02    0.00  0.1270E-02    0.00  0.4520E-02    0.00
   417   15.78       95.46      0.4690E+06   |    0.1118E-02    0.00  0.3577E-02    0.00  0.6136E-02    0.00
   418   15.82       129.9      0.6413E+06   |    0.1397E-03    0.00  0.1201E-03    0.00  0.8849E-01    0.01
   419   15.85       71.78      0.3558E+06   |    0.6405E-03    0.00  0.5082E-03    0.00  0.2361E-04    0.00
   420   15.87       86.01      0.4277E+06   |    0.1192E-03    0.00  0.3228E-03    0.00  0.3474E-01    0.00
   421   15.93       112.7      0.5645E+06   |    0.4464E-02    0.00  0.5508E-03    0.00  0.5548E-03    0.00
   422   15.96       73.47      0.3692E+06   |    0.1318E-02    0.00  0.9196E-03    0.00  0.5578E-02    0.00
   423   15.98       91.94      0.4637E+06   |    0.2452E-05    0.00  0.4043E-02    0.00  0.1533E-01    0.00
   424   16.03       102.9      0.5220E+06   |    0.7894E-03    0.00  0.7569E-04    0.00  0.7377E-02    0.00
   425   16.09       111.9      0.5716E+06   |    0.3996E-03    0.00  0.2310E-05    0.00  0.2636E-01    0.00
   426   16.13       71.27      0.3662E+06   |    0.1904E-04    0.00  0.1291E-05    0.00  0.2749E-02    0.00
   427   16.16       103.7      0.5346E+06   |    0.3030E-02    0.00  0.2353E-06    0.00  0.1064E-02    0.00
   428   16.16       125.0      0.6446E+06   |    0.1369E-02    0.00  0.1794E-02    0.00  0.1661E-02    0.00
   429   16.19       90.51      0.4681E+06   |    0.5456E-03    0.00  0.4154E-02    0.00  0.9574E-02    0.00
   430   16.23       62.91      0.3272E+06   |    0.3703E-03    0.00  0.5026E-04    0.00  0.6192E-03    0.00
   431   16.25       67.98      0.3542E+06   |    0.6848E-05    0.00  0.3690E-04    0.00  0.2264E-01    0.00
   432   16.29       60.55      0.3173E+06   |    0.1221E-02    0.00  0.1353E-05    0.00  0.4589E-03    0.00
   433   16.34       125.3      0.6605E+06   |    0.5126E-03    0.00  0.1260E-04    0.00  0.6263E-02    0.00
   434   16.37       81.10      0.4292E+06   |    0.1585E-04    0.00  0.3785E-02    0.00  0.1753E-02    0.00
   435   16.40       84.21      0.4470E+06   |    0.2709E-02    0.00  0.2712E-04    0.00  0.1385E-02    0.00
   436   16.44       70.54      0.3763E+06   |    0.3023E-05    0.00  0.1365E-03    0.00  0.1233E-01    0.00
   437   16.51       74.77      0.4025E+06   |    0.1686E-02    0.00  0.1980E-03    0.00  0.8280E-04    0.00
   438   16.52       84.11      0.4532E+06   |    0.2586E-03    0.00  0.1754E-02    0.00  0.2690E-03    0.00
   439   16.54       119.5      0.6457E+06   |    0.1303E-03    0.00  0.9764E-04    0.00  0.4676E-03    0.00
   440   16.57       27.22      0.1474E+06   |    0.2542E-06    0.00  0.8771E-06    0.00  0.3791E-02    0.00
   441   16.59       31.93      0.1736E+06   |    0.3237E-06    0.00  0.3923E-07    0.00  0.1259E-02    0.00
   442   16.61       71.83      0.3912E+06   |    0.5715E-03    0.00  0.2399E-04    0.00  0.4760E-03    0.00
   443   16.61       70.44      0.3836E+06   |    0.2606E-04    0.00  0.5432E-03    0.00  0.8131E-04    0.00
   444   16.67       18.63      0.1022E+06   |    0.5789E-07    0.00  0.2888E-06    0.00  0.1693E-02    0.00
   445   16.68       104.0      0.5709E+06   |    0.1804E-06    0.00  0.7450E-07    0.00  0.3776E-01    0.00
   446   16.77       67.68      0.3755E+06   |    0.5627E-05    0.00  0.1007E-06    0.00  0.3058E-01    0.00
   447   16.81       66.19      0.3694E+06   |    0.6581E-06    0.00  0.6184E-04    0.00  0.2185E-01    0.00
   448   16.87       81.11      0.4557E+06   |    0.9160E-04    0.00  0.2143E-05    0.00  0.5954E-01    0.01
   449   16.92       50.84      0.2873E+06   |    0.7927E-05    0.00  0.6794E-04    0.00  0.2797E-01    0.00
   450   16.93       65.44      0.3701E+06   |    0.9054E-04    0.00  0.3104E-04    0.00  0.5134E-02    0.00
   451   16.96       81.08      0.4603E+06   |    0.5817E-04    0.00  0.3839E-04    0.00  0.6470E-03    0.00
   452   17.11       60.23      0.3483E+06   |    0.4462E-05    0.00  0.2997E-04    0.00  0.1994E-04    0.00
   453   17.14       87.59      0.5081E+06   |    0.2689E-04    0.00  0.1605E-04    0.00  0.7375E-02    0.00
   454   17.21       61.09      0.3573E+06   |    0.3811E-05    0.00  0.3272E-05    0.00  0.5391E-02    0.00
   455   17.23       111.5      0.6536E+06   |    0.3411E-04    0.00  0.4365E-04    0.00  0.1262E-02    0.00
   456   17.27       58.51      0.3445E+06   |    0.3570E-04    0.00  0.1762E-04    0.00  0.2984E-03    0.00
   457   17.37       72.16      0.4299E+06   |    0.2033E-03    0.00  0.1684E-03    0.00  0.3421E-03    0.00
   458   17.39       55.11      0.3288E+06   |    0.5321E-05    0.00  0.3892E-04    0.00  0.1554E-01    0.00
   459   17.42       52.92      0.3170E+06   |    0.5698E-04    0.00  0.2693E-03    0.00  0.3513E-02    0.00
   460   17.48       14.79      0.8917E+05   |    0.3453E-05    0.00  0.4932E-09    0.00  0.4331E-02    0.00
   461   17.51       20.63      0.1249E+06   |    0.1603E-03    0.00  0.3020E-05    0.00  0.4634E-02    0.00
   462   17.53       77.42      0.4697E+06   |    0.1296E-03    0.00  0.7298E-04    0.00  0.2312E-02    0.00
   463   17.57       93.75      0.5715E+06   |    0.1746E-04    0.00  0.1108E-03    0.00  0.2680E-01    0.00
   464   17.65       59.86      0.3680E+06   |    0.1032E-03    0.00  0.2139E-04    0.00  0.2954E-01    0.00
   465   17.70       55.69      0.3444E+06   |    0.3822E-06    0.00  0.6558E-04    0.00  0.1877E-03    0.00
   466   17.75       92.49      0.5755E+06   |    0.5441E-06    0.00  0.1063E-04    0.00  0.3354E-01    0.00
   467   17.82       92.97      0.5824E+06   |    0.9131E-04    0.00  0.2846E-03    0.00  0.7756E-02    0.00
   468   17.83       96.90      0.6079E+06   |    0.5433E-04    0.00  0.5539E-04    0.00  0.4356E-01    0.00
   469   17.86       79.09      0.4980E+06   |    0.1164E-05    0.00  0.1504E-05    0.00  0.6729E-03    0.00
   470   17.86       67.38      0.4243E+06   |    0.1231E-05    0.00  0.5383E-06    0.00  0.1835E-03    0.00
   471   17.89       70.60      0.4459E+06   |    0.2168E-04    0.00  0.2374E-06    0.00  0.2016E-05    0.00
   472   17.89       93.87      0.5931E+06   |    0.1471E-05    0.00  0.2633E-04    0.00  0.7347E-02    0.00
   473   17.90       50.15      0.3171E+06   |    0.1128E-04    0.00  0.5551E-05    0.00  0.1928E-03    0.00
   474   17.92       141.5      0.8966E+06   |    0.4124E-04    0.00  0.6605E-05    0.00  0.2853E-03    0.00
   475   17.94       105.9      0.6726E+06   |    0.2706E-05    0.00  0.1631E-07    0.00  0.3324E-02    0.00
   476   17.96       71.10      0.4525E+06   |    0.1403E-03    0.00  0.3028E-05    0.00  0.2526E-03    0.00
   477   17.97       162.2      0.1034E+07   |    0.3703E-03    0.00  0.4824E-04    0.00  0.7667E-02    0.00
   478   18.00       112.9      0.7220E+06   |    0.2457E-03    0.00  0.1679E-05    0.00  0.5452E-02    0.00
   479   18.02       96.04      0.6157E+06   |    0.2639E-04    0.00  0.2434E-05    0.00  0.1952E-02    0.00
   480   18.07       128.4      0.8278E+06   |    0.8051E-05    0.00  0.2826E-04    0.00  0.1523E-02    0.00
   481   18.08       160.9      0.1038E+07   |    0.1133E-04    0.00  0.1835E-04    0.00  0.2670E-02    0.00
   482   18.10       105.2      0.6802E+06   |    0.1337E-09    0.00  0.1226E-06    0.00  0.6629E-05    0.00
   483   18.12       65.23      0.4227E+06   |    0.5333E-06    0.00  0.4377E-03    0.00  0.1897E-02    0.00
   484   18.16       95.86      0.6238E+06   |    0.7373E-04    0.00  0.1088E-03    0.00  0.3130E-02    0.00
   485   18.21       43.42      0.2844E+06   |    0.6173E-05    0.00  0.2527E-03    0.00  0.1864E-03    0.00
   486   18.31       90.81      0.6008E+06   |    0.7032E-05    0.00  0.2541E-04    0.00  0.2302E-02    0.00
   487   18.33       73.04      0.4845E+06   |    0.1940E-04    0.00  0.1679E-04    0.00  0.1076E-02    0.00
   488   18.44       75.06      0.5037E+06   |    0.5358E-04    0.00  0.9046E-05    0.00  0.3646E-02    0.00
   489   18.61       36.46      0.2493E+06   |    0.8786E-05    0.00  0.9945E-04    0.00  0.5275E-01    0.01
   490   18.64       50.98      0.3496E+06   |    0.2389E-03    0.00  0.7633E-06    0.00  0.1268E-01    0.00
   491   18.65       103.3      0.7087E+06   |    0.7919E-03    0.00  0.2335E-03    0.00  0.9781E-05    0.00
   492   18.68       55.21      0.3804E+06   |    0.7109E-04    0.00  0.1394E-04    0.00  0.4607E-02    0.00
   493   18.73       70.51      0.4882E+06   |    0.9487E-04    0.00  0.5002E-03    0.00  0.4969E-01    0.00
   494   18.82       97.01      0.6781E+06   |    0.1528E-03    0.00  0.1902E-03    0.00  0.9782E-02    0.00
   495   18.86       25.80      0.1812E+06   |    0.6674E-04    0.00  0.2324E-03    0.00  0.2803E-02    0.00
   496   18.91       62.64      0.4423E+06   |    0.6357E-05    0.00  0.4352E-04    0.00  0.1961E-01    0.00
   497   18.98       61.41      0.4367E+06   |    0.1408E-05    0.00  0.3142E-05    0.00  0.1107E-01    0.00
   498   19.05       29.40      0.2107E+06   |    0.8047E-07    0.00  0.6228E-07    0.00  0.2292E-03    0.00
   499   19.11       35.74      0.2575E+06   |    0.3221E-04    0.00  0.3763E-04    0.00  0.3057E-02    0.00
   500   19.25       23.32      0.1707E+06   |    0.1356E-05    0.00  0.1502E-03    0.00  0.2507E-03    0.00
   501   19.34       12.68      0.9361E+05   |    0.6827E-06    0.00  0.1091E-06    0.00  0.5574E-06    0.00
   502   19.42       78.03      0.5807E+06   |    0.9807E-03    0.00  0.5627E-04    0.00  0.9183E-03    0.00
   503   19.44       51.41      0.3837E+06   |    0.1711E-03    0.00  0.1027E-04    0.00  0.2165E-02    0.00
   504   19.47       75.62      0.5662E+06   |    0.8204E-05    0.00  0.9237E-03    0.00  0.1701E-02    0.00
   505   19.49       26.65      0.1998E+06   |    0.5863E-04    0.00  0.3577E-04    0.00  0.1790E-02    0.00
   506   19.59       13.54      0.1026E+06   |    0.7967E-05    0.00  0.9290E-07    0.00  0.1287E-01    0.00
   507   19.72       68.04      0.5220E+06   |    0.2200E-06    0.00  0.1568E-05    0.00  0.1040        0.01
   508   19.87       32.23      0.2511E+06   |    0.4053E-05    0.00  0.1390E-04    0.00  0.2974E-02    0.00
   509   19.97       69.77      0.5495E+06   |    0.1395E-06    0.00  0.8756E-04    0.00  0.1043E-02    0.00
   510   20.00       30.04      0.2372E+06   |    0.3765E-03    0.00  0.7969E-04    0.00  0.3302E-04    0.00
   511   20.03       39.23      0.3107E+06   |    0.1571E-03    0.00  0.4238E-03    0.00  0.3515E-04    0.00
   512   20.15       22.73      0.1822E+06   |    0.7996E-05    0.00  0.7520E-08    0.00  0.1725E-04    0.00
   513   20.22       53.49      0.4315E+06   |    0.2314E-03    0.00  0.1696E-04    0.00  0.1060E-03    0.00
   514   20.28       45.61      0.3705E+06   |    0.1564E-03    0.00  0.1956E-03    0.00  0.1262E-02    0.00
   515   20.34       48.74      0.3981E+06   |    0.2743E-05    0.00  0.8640E-04    0.00  0.3860E-02    0.00
   516   20.41       44.68      0.3674E+06   |    0.1651E-03    0.00  0.1487E-03    0.00  0.1389E-02    0.00
   517   20.43       43.23      0.3562E+06   |    0.2722E-04    0.00  0.9096E-04    0.00  0.3602E-02    0.00
   518   20.50       68.42      0.5675E+06   |    0.3965E-05    0.00  0.4450E-06    0.00  0.6970E-02    0.00
   519   20.54       29.75      0.2478E+06   |    0.8501E-07    0.00  0.5700E-05    0.00  0.4791E-04    0.00
   520   20.61       162.3      0.1361E+07   |    0.6753E-06    0.00  0.8246E-06    0.00  0.6898E-01    0.01
   521   20.79       58.81      0.5020E+06   |    0.3707E-03    0.00  0.1675E-03    0.00  0.9008E-05    0.00
   522   20.84       63.14      0.5414E+06   |    0.1444E-03    0.00  0.3217E-03    0.00  0.1661E-06    0.00
   523   20.94       89.52      0.7752E+06   |    0.2112E-06    0.00  0.9178E-06    0.00  0.4244E-05    0.00
   524   20.97       21.84      0.1895E+06   |    0.3464E-06    0.00  0.7091E-06    0.00  0.5914E-05    0.00
   525   21.17       34.36      0.3040E+06   |    0.1114E-07    0.00  0.5937E-06    0.00  0.2831E-01    0.00
   526   21.24       54.76      0.4876E+06   |    0.1813E-03    0.00  0.7750E-04    0.00  0.1734E-04    0.00
   527   21.25       57.71      0.5144E+06   |    0.7261E-04    0.00  0.1638E-03    0.00  0.1290E-04    0.00
   528   21.28       28.98      0.2589E+06   |    0.1190E-07    0.00  0.3153E-05    0.00  0.2940E-02    0.00
   529   21.31       13.37      0.1198E+06   |    0.1121E-06    0.00  0.1181E-05    0.00  0.3343E-02    0.00
   530   21.49       13.96      0.1273E+06   |    0.1120E-04    0.00  0.8259E-05    0.00  0.2499E-05    0.00
   531   21.50       23.55      0.2149E+06   |    0.1853E-04    0.00  0.2849E-04    0.00  0.2035E-03    0.00
   532   21.53       65.55      0.5999E+06   |    0.3222E-04    0.00  0.1823E-04    0.00  0.1506E-04    0.00
   533   21.55       29.69      0.2723E+06   |    0.7496E-05    0.00  0.1337E-04    0.00  0.1634E-02    0.00
   534   21.57       77.67      0.7131E+06   |    0.3893E-06    0.00  0.9782E-06    0.00  0.1326E-02    0.00
   535   21.60       102.6      0.9452E+06   |    0.6941E-08    0.00  0.8680E-07    0.00  0.3055E-01    0.00
   536   21.72       60.70      0.5652E+06   |    0.1970E-09    0.00  0.4143E-09    0.00  0.6539E-04    0.00
   537   21.77       24.98      0.2338E+06   |    0.4435E-09    0.00  0.8960E-11    0.00  0.1449E-02    0.00
   538   21.80       66.62      0.6249E+06   |    0.3801E-10    0.00  0.2386E-10    0.00  0.7405E-04    0.00
   539   21.99       20.30      0.1937E+06   |     0.000        0.00   0.000        0.00  0.6427E-09    0.00
   540   22.02       23.87      0.2286E+06   |    0.1731E-10    0.00  0.9181E-11    0.00  0.1128E-02    0.00
   541   22.13       125.3      0.1211E+07   |    0.2751E-12    0.00   0.000        0.00  0.2054E-01    0.00
   542   22.49       114.2      0.1140E+07   |     0.000        0.00   0.000        0.00  0.5751E-02    0.00
   543   23.25       7.292      0.7780E+05   |     0.000        0.00   0.000        0.00  0.6951E-08    0.00
   544   24.52       4.225      0.5012E+05   |     0.000        0.00   0.000        0.00  0.6879E-12    0.00
   545   25.12       6.270      0.7807E+05   |     0.000        0.00   0.000        0.00   0.000        0.00
   546   28.61       6.024      0.9732E+05   |     0.000        0.00   0.000        0.00   0.000        0.00
   547   28.61       6.014      0.9717E+05   |     0.000        0.00   0.000        0.00   0.000        0.00
   548   30.62       10.83      0.2005E+06   |     0.000        0.00   0.000        0.00   0.000        0.00
   549   37.28       12.61      0.3461E+06   |     0.000        0.00   0.000        0.00   0.000        0.00
   550   38.02       13.04      0.3720E+06   |     0.000        0.00   0.000        0.00   0.000        0.00
   551   38.30       6.194      0.1793E+06   |     0.000        0.00   0.000        0.00   0.000        0.00
   552   38.30       6.192      0.1793E+06   |     0.000        0.00   0.000        0.00   0.000        0.00
 --------------------------------------------------------------------------------------------------------------
   sum                                       |     995.3       98.92   995.3       98.92   995.3       98.92
 --------------------------------------------------------------------------------------------------------------


 *** ANSYS BINARY FILE STATISTICS
  BUFFER SIZE USED= 16384
        0.125 MB WRITTEN ON ASSEMBLED MATRIX FILE: file1.full
        2.438 MB WRITTEN ON MODAL MATRIX FILE: file1.mode
        4.375 MB WRITTEN ON RESULTS FILE: file1.rst

 FINISH SOLUTION PROCESSING


 ***** ROUTINE COMPLETED *****  CP =         5.766




 NUMBER OF WARNING MESSAGES ENCOUNTERED=          0
 NUMBER OF ERROR   MESSAGES ENCOUNTERED=          0


 *---------------------------------------------------------------------------*
 |                                                                           |
 |                       DISTRIBUTED ANSYS RUN COMPLETED                     |
 |                                                                           |
 |---------------------------------------------------------------------------|
 |                                                                           |
 | Ansys 2020 R1               Build 20.1         UP20191203     WINDOWS x64 |
 |                                                                           |
 |---------------------------------------------------------------------------|
 |                                                                           |
 | Database Requested(-db)     1 MB    Scratch Memory Requested      1024 MB |
 | Maximum Database Used       1 MB    Maximum Scratch Memory Used     12 MB |
 |                                                                           |
 |---------------------------------------------------------------------------|
 |                                                                           |
 |        CP Time      (sec) =          6.312       Time  =  23:33:39        |
 |        Elapsed Time (sec) =       3208.000       Date  =  08/17/2020      |
 |                                                                           |
 *---------------------------------------------------------------------------*
